<?xml version="1.0" encoding="UTF-8"?>

<!-- generated on 2021-07-14 12:48:10 by Eclipse SUMO netedit Version 1.9.2
<configuration xmlns:xsi="http://www.w3.org/2001/XMLSchema-instance" xsi:noNamespaceSchemaLocation="http://sumo.dlr.de/xsd/netconvertConfiguration.xsd">

    <input>
        <sumo-net-file value="net.net.xml"/>
    </input>

    <output>
        <output-file value="net.net.xml"/>
    </output>

    <processing>
        <geometry.min-radius.fix.railways value="false"/>
        <geometry.max-grade.fix value="false"/>
        <offset.disable-normalization value="true"/>
        <lefthand value="false"/>
    </processing>

    <junctions>
        <no-internal-links value="true"/>
        <no-turnarounds value="true"/>
        <junctions.corner-detail value="0"/>
        <junctions.limit-turn-speed value="-1"/>
        <rectangular-lane-cut value="false"/>
    </junctions>

    <pedestrian>
        <walkingareas value="false"/>
    </pedestrian>

    <report>
        <aggregate-warnings value="5"/>
    </report>

</configuration>
-->

<net version="1.9" xmlns:xsi="http://www.w3.org/2001/XMLSchema-instance" xsi:noNamespaceSchemaLocation="http://sumo.dlr.de/xsd/net_file.xsd">

    <location netOffset="0.00,0.00" convBoundary="-7.00,0.00,300.00,0.00" origBoundary="-10000000000.00,-10000000000.00,10000000000.00,10000000000.00" projParameter="!"/>

    <edge id="beg" from="gneJ4" to="gneJ0" priority="1">
        <lane id="beg_0" index="0" speed="1.00" length="7.00" shape="-7.00,-8.00 0.00,-8.00"/>
        <lane id="beg_1" index="1" speed="1.00" length="7.00" shape="-7.00,-4.80 0.00,-4.80"/>
        <lane id="beg_2" index="2" speed="1.00" length="7.00" shape="-7.00,-1.60 0.00,-1.60"/>
    </edge>
    <edge id="end" from="gneJ1" to="gneJ3" priority="1">
        <lane id="end_0" index="0" speed="13.89" length="100.00" shape="200.00,-8.00 300.00,-8.00"/>
        <lane id="end_1" index="1" speed="13.89" length="100.00" shape="200.00,-4.80 300.00,-4.80"/>
        <lane id="end_2" index="2" speed="13.89" length="100.00" shape="200.00,-1.60 300.00,-1.60"/>
    </edge>
    <edge id="middle" from="gneJ0" to="gneJ1" priority="1">
        <lane id="middle_0" index="0" speed="13.89" length="200.00" shape="0.00,-8.00 200.00,-8.00"/>
        <lane id="middle_1" index="1" speed="13.89" length="200.00" shape="0.00,-4.80 200.00,-4.80"/>
        <lane id="middle_2" index="2" speed="13.89" length="200.00" shape="0.00,-1.60 200.00,-1.60"/>
    </edge>

    <junction id="gneJ0" type="unregulated" x="0.00" y="0.00" incLanes="beg_0 beg_1 beg_2" intLanes="" shape="0.00,0.00 0.00,-9.60 0.00,0.00"/>
    <junction id="gneJ1" type="priority" x="200.00" y="0.00" incLanes="middle_0 middle_1 middle_2" intLanes="" shape="200.00,0.00 200.00,-9.60 200.00,0.00">
        <request index="0" response="000" foes="000"/>
        <request index="1" response="000" foes="000"/>
        <request index="2" response="000" foes="000"/>
    </junction>
    <junction id="gneJ3" type="dead_end" x="300.00" y="0.00" incLanes="end_0 end_1 end_2" intLanes="" shape="300.00,-9.60 300.00,0.00"/>
    <junction id="gneJ4" type="dead_end" x="-7.00" y="0.00" incLanes="" intLanes="" shape="-7.00,0.00 -7.00,-9.60"/>

    <connection from="beg" to="middle" fromLane="0" toLane="0" dir="s" state="M"/>
    <connection from="beg" to="middle" fromLane="1" toLane="1" dir="s" state="M"/>
    <connection from="beg" to="middle" fromLane="2" toLane="2" dir="s" state="M"/>
    <connection from="middle" to="end" fromLane="0" toLane="0" dir="s" state="M"/>
    <connection from="middle" to="end" fromLane="1" toLane="1" dir="s" state="M"/>
    <connection from="middle" to="end" fromLane="2" toLane="2" dir="s" state="M"/>

</net>
