<configuration>
    <input>
        <net-file value="net.net.xml"/>
        <route-files value="test.rou.xml"/>
    </input>

    <processing>
        <time-to-teleport value="-1"/>
    </processing>
</configuration>