<configuration>
    <input>
        <net-file value="net.net.xml"/>
        <route-files value="random_incident.rou.xml"/>
        <!-- <additional-files value="NEMA.add.xml"/> -->
        <!-- <tls.actuated.show-detectors value="true"/> -->
    </input>

    <processing>
        <time-to-teleport value="-1"/>
    </processing>
</configuration>