<configuration>
    <input>
        <net-file value="net.net.xml"/>
        <route-files value="random.rou.xml"/>
        <!-- <additional-files value="NEMA.add.xml"/> -->
        <!-- <tls.actuated.show-detectors value="true"/> -->
    </input>


</configuration>