<?xml version="1.0" encoding="UTF-8"?>

<!-- generated on 2021-07-21 11:41:40 by Eclipse SUMO duarouter Version 1.9.2
<configuration xmlns:xsi="http://www.w3.org/2001/XMLSchema-instance" xsi:noNamespaceSchemaLocation="http://sumo.dlr.de/xsd/duarouterConfiguration.xsd">

    <input>
        <net-file value="net.net.xml"/>
        <route-files value="testTrip.trips.xml"/>
    </input>

    <output>
        <output-file value="myTriptest.rou.xml"/>
        <alternatives-output value="myTriptest.rou.alt.xml"/>
    </output>

</configuration>
-->

<routes xmlns:xsi="http://www.w3.org/2001/XMLSchema-instance" xsi:noNamespaceSchemaLocation="http://sumo.dlr.de/xsd/routes_file.xsd">
    <vehicle id="1" depart="0.00">
        <route edges="left0A0 left0A0.100.00 A0B0 A0B0.100.00 B0C0 B0C0.100.00 C0C1 C0C1.100.00 C1C2 C1C2.100.00 C2right2"/>
    </vehicle>
    <vehicle id="11" depart="0.00">
        <route edges="left0A0 left0A0.100.00 A0B0 A0B0.100.00 B0C0 B0C0.100.00 C0C1 C0C1.100.00 C1C2 C1C2.100.00 C2right2"/>
    </vehicle>
    <vehicle id="111" depart="0.00">
        <route edges="left0A0 left0A0.100.00 A0B0 A0B0.100.00 B0C0 B0C0.100.00 C0C1 C0C1.100.00 C1C2 C1C2.100.00 C2right2"/>
    </vehicle>
</routes>
