<?xml version="1.0" encoding="UTF-8"?>

<!-- generated on Thu Jul 22 16:24:27 2021 by Eclipse SUMO duarouter Version v1_8_0+1542-ea67ae728a
<configuration xmlns:xsi="http://www.w3.org/2001/XMLSchema-instance" xsi:noNamespaceSchemaLocation="http://sumo.dlr.de/xsd/duarouterConfiguration.xsd">

    <input>
        <net-file value="net.net.xml"/>
        <route-files value="trips.trips.xml"/>
    </input>

    <output>
        <output-file value="random.rou.xml"/>
        <alternatives-output value="random.rou.alt.xml"/>
    </output>

    <time>
        <begin value="0"/>
        <end value="900"/>
    </time>

    <report>
        <no-warnings value="true"/>
        <ignore-errors value="true"/>
        <no-step-log value="true"/>
    </report>

</configuration>
-->

<routes xmlns:xsi="http://www.w3.org/2001/XMLSchema-instance" xsi:noNamespaceSchemaLocation="http://sumo.dlr.de/xsd/routes_file.xsd">
    <vType id="emergency" length="20.00" vClass="emergency"/>
    <vehicle id="0" type="emergency" depart="0.00">
        <route edges="right1C1 right1C1.100.00 C1B1 C1B1.100.00 B1A1 B1A1.100.00 A1A0 A1A0.100.00 A0bottom0"/>
    </vehicle>
    <vehicle id="1" type="emergency" depart="0.50">
        <route edges="left0A0 left0A0.100.00 A0A1 A0A1.100.00 A1left1"/>
    </vehicle>
    <vehicle id="2" type="emergency" depart="1.00">
        <route edges="right2C2 right2C2.100.00 C2C1 C2C1.100.00 C1C0 C1C0.100.00 C0right0"/>
    </vehicle>
    <vehicle id="3" type="emergency" depart="1.50">
        <route edges="top1B2 top1B2.100.00 B2B1 B2B1.100.00 B1B0 B1B0.100.00 B0A0 B0A0.100.00 A0left0"/>
    </vehicle>
    <vehicle id="4" type="emergency" depart="2.00">
        <route edges="left2A2 left2A2.100.00 A2A1 A2A1.100.00 A1A0 A1A0.100.00 A0bottom0"/>
    </vehicle>
    <vehicle id="5" type="emergency" depart="2.50">
        <route edges="bottom2C0 bottom2C0.100.00 C0C1 C0C1.100.00 C1C2 C1C2.100.00 C2B2 C2B2.100.00 B2top1"/>
    </vehicle>
    <vehicle id="6" type="emergency" depart="3.00">
        <route edges="bottom0A0 bottom0A0.100.00 A0A1 A0A1.100.00 A1left1"/>
    </vehicle>
    <vehicle id="7" type="emergency" depart="3.50">
        <route edges="right1C1 right1C1.100.00 C1B1 C1B1.100.00 B1B2 B1B2.100.00 B2top1"/>
    </vehicle>
    <vehicle id="8" type="emergency" depart="4.00">
        <route edges="bottom2C0 bottom2C0.100.00 C0B0 C0B0.100.00 B0B1 B0B1.100.00 B1C1 B1C1.100.00 C1C0 C1C0.100.00 C0bottom2"/>
    </vehicle>
    <vehicle id="9" type="emergency" depart="4.50">
        <route edges="top0A2 top0A2.100.00 A2A1 A2A1.100.00 A1A0 A1A0.100.00 A0bottom0"/>
    </vehicle>
    <vehicle id="10" type="emergency" depart="5.00">
        <route edges="top0A2 top0A2.100.00 A2A1 A2A1.100.00 A1A0 A1A0.100.00 A0B0 A0B0.100.00 B0C0 B0C0.100.00 C0right0"/>
    </vehicle>
    <vehicle id="11" type="emergency" depart="5.50">
        <route edges="left1A1 left1A1.100.00 A1A0 A1A0.100.00 A0left0"/>
    </vehicle>
    <vehicle id="12" type="emergency" depart="6.00">
        <route edges="top2C2 top2C2.100.00 C2B2 C2B2.100.00 B2A2 B2A2.100.00 A2top0"/>
    </vehicle>
    <vehicle id="13" type="emergency" depart="6.50">
        <route edges="bottom1B0 bottom1B0.100.00 B0A0 B0A0.100.00 A0left0"/>
    </vehicle>
    <vehicle id="14" type="emergency" depart="7.00">
        <route edges="top1B2 top1B2.100.00 B2B1 B2B1.100.00 B1B0 B1B0.100.00 B0C0 B0C0.100.00 C0bottom2"/>
    </vehicle>
    <vehicle id="15" type="emergency" depart="7.50">
        <route edges="top0A2 top0A2.100.00 A2A1 A2A1.100.00 A1A0 A1A0.100.00 A0B0 A0B0.100.00 B0C0 B0C0.100.00 C0right0"/>
    </vehicle>
    <vehicle id="16" type="emergency" depart="8.00">
        <route edges="right0C0 right0C0.100.00 C0C1 C0C1.100.00 C1C2 C1C2.100.00 C2top2"/>
    </vehicle>
    <vehicle id="17" type="emergency" depart="8.50">
        <route edges="left1A1 left1A1.100.00 A1B1 A1B1.100.00 B1B2 B1B2.100.00 B2top1"/>
    </vehicle>
    <vehicle id="18" type="emergency" depart="9.00">
        <route edges="top0A2 top0A2.100.00 A2A1 A2A1.100.00 A1A0 A1A0.100.00 A0B0 A0B0.100.00 B0C0 B0C0.100.00 C0bottom2"/>
    </vehicle>
    <vehicle id="19" type="emergency" depart="9.50">
        <route edges="top1B2 top1B2.100.00 B2B1 B2B1.100.00 B1A1 B1A1.100.00 A1A2 A1A2.100.00 A2B2 A2B2.100.00 B2top1"/>
    </vehicle>
    <vehicle id="20" type="emergency" depart="10.00">
        <route edges="right2C2 right2C2.100.00 C2B2 C2B2.100.00 B2A2 B2A2.100.00 A2A1 A2A1.100.00 A1A0 A1A0.100.00 A0bottom0"/>
    </vehicle>
    <vehicle id="21" type="emergency" depart="10.50">
        <route edges="bottom2C0 bottom2C0.100.00 C0C1 C0C1.100.00 C1C2 C1C2.100.00 C2B2 C2B2.100.00 B2A2 B2A2.100.00 A2left2"/>
    </vehicle>
    <vehicle id="22" type="emergency" depart="11.00">
        <route edges="bottom0A0 bottom0A0.100.00 A0A1 A0A1.100.00 A1left1"/>
    </vehicle>
    <vehicle id="23" type="emergency" depart="11.50">
        <route edges="bottom1B0 bottom1B0.100.00 B0B1 B0B1.100.00 B1B2 B1B2.100.00 B2A2 B2A2.100.00 A2left2"/>
    </vehicle>
    <vehicle id="24" type="emergency" depart="12.00">
        <route edges="right1C1 right1C1.100.00 C1B1 C1B1.100.00 B1A1 B1A1.100.00 A1A2 A1A2.100.00 A2top0"/>
    </vehicle>
    <vehicle id="25" type="emergency" depart="12.50">
        <route edges="left1A1 left1A1.100.00 A1B1 A1B1.100.00 B1B0 B1B0.100.00 B0A0 B0A0.100.00 A0A1 A0A1.100.00 A1left1"/>
    </vehicle>
    <vehicle id="26" type="emergency" depart="13.00">
        <route edges="left0A0 left0A0.100.00 A0B0 A0B0.100.00 B0C0 B0C0.100.00 C0C1 C0C1.100.00 C1C2 C1C2.100.00 C2top2"/>
    </vehicle>
    <vehicle id="27" type="emergency" depart="13.50">
        <route edges="right1C1 right1C1.100.00 C1C0 C1C0.100.00 C0bottom2"/>
    </vehicle>
    <vehicle id="28" type="emergency" depart="14.00">
        <route edges="bottom2C0 bottom2C0.100.00 C0right0"/>
    </vehicle>
    <vehicle id="29" type="emergency" depart="14.50">
        <route edges="bottom1B0 bottom1B0.100.00 B0B1 B0B1.100.00 B1B2 B1B2.100.00 B2A2 B2A2.100.00 A2top0"/>
    </vehicle>
    <vehicle id="30" type="emergency" depart="15.00">
        <route edges="top2C2 top2C2.100.00 C2C1 C2C1.100.00 C1C0 C1C0.100.00 C0bottom2"/>
    </vehicle>
    <vehicle id="31" type="emergency" depart="15.50">
        <route edges="right0C0 right0C0.100.00 C0B0 C0B0.100.00 B0B1 B0B1.100.00 B1C1 B1C1.100.00 C1C0 C1C0.100.00 C0right0"/>
    </vehicle>
    <vehicle id="32" type="emergency" depart="16.00">
        <route edges="top1B2 top1B2.100.00 B2B1 B2B1.100.00 B1C1 B1C1.100.00 C1right1"/>
    </vehicle>
    <vehicle id="33" type="emergency" depart="16.50">
        <route edges="bottom2C0 bottom2C0.100.00 C0B0 C0B0.100.00 B0A0 B0A0.100.00 A0bottom0"/>
    </vehicle>
    <vehicle id="34" type="emergency" depart="17.00">
        <route edges="left0A0 left0A0.100.00 A0A1 A0A1.100.00 A1A2 A1A2.100.00 A2left2"/>
    </vehicle>
    <vehicle id="35" type="emergency" depart="17.50">
        <route edges="bottom2C0 bottom2C0.100.00 C0C1 C0C1.100.00 C1C2 C1C2.100.00 C2top2"/>
    </vehicle>
    <vehicle id="36" type="emergency" depart="18.00">
        <route edges="top1B2 top1B2.100.00 B2A2 B2A2.100.00 A2left2"/>
    </vehicle>
    <vehicle id="37" type="emergency" depart="18.50">
        <route edges="right1C1 right1C1.100.00 C1B1 C1B1.100.00 B1A1 B1A1.100.00 A1A2 A1A2.100.00 A2top0"/>
    </vehicle>
    <vehicle id="38" type="emergency" depart="19.00">
        <route edges="top1B2 top1B2.100.00 B2B1 B2B1.100.00 B1B0 B1B0.100.00 B0bottom1"/>
    </vehicle>
    <vehicle id="39" type="emergency" depart="19.50">
        <route edges="left0A0 left0A0.100.00 A0A1 A0A1.100.00 A1left1"/>
    </vehicle>
    <vehicle id="40" type="emergency" depart="20.00">
        <route edges="right0C0 right0C0.100.00 C0B0 C0B0.100.00 B0A0 B0A0.100.00 A0A1 A0A1.100.00 A1A2 A1A2.100.00 A2left2"/>
    </vehicle>
    <vehicle id="41" type="emergency" depart="20.50">
        <route edges="right1C1 right1C1.100.00 C1C2 C1C2.100.00 C2right2"/>
    </vehicle>
    <vehicle id="42" type="emergency" depart="21.00">
        <route edges="left1A1 left1A1.100.00 A1B1 A1B1.100.00 B1B0 B1B0.100.00 B0A0 B0A0.100.00 A0A1 A0A1.100.00 A1left1"/>
    </vehicle>
    <vehicle id="43" type="emergency" depart="21.50">
        <route edges="top2C2 top2C2.100.00 C2B2 C2B2.100.00 B2top1"/>
    </vehicle>
    <vehicle id="44" type="emergency" depart="22.00">
        <route edges="bottom1B0 bottom1B0.100.00 B0A0 B0A0.100.00 A0bottom0"/>
    </vehicle>
    <vehicle id="45" type="emergency" depart="22.50">
        <route edges="bottom1B0 bottom1B0.100.00 B0C0 B0C0.100.00 C0bottom2"/>
    </vehicle>
    <vehicle id="46" type="emergency" depart="23.00">
        <route edges="top0A2 top0A2.100.00 A2A1 A2A1.100.00 A1A0 A1A0.100.00 A0B0 A0B0.100.00 B0bottom1"/>
    </vehicle>
    <vehicle id="47" type="emergency" depart="23.50">
        <route edges="bottom0A0 bottom0A0.100.00 A0A1 A0A1.100.00 A1A2 A1A2.100.00 A2top0"/>
    </vehicle>
    <vehicle id="48" type="emergency" depart="24.00">
        <route edges="top2C2 top2C2.100.00 C2B2 C2B2.100.00 B2top1"/>
    </vehicle>
    <vehicle id="49" type="emergency" depart="24.50">
        <route edges="top2C2 top2C2.100.00 C2right2"/>
    </vehicle>
    <vehicle id="50" type="emergency" depart="25.00">
        <route edges="bottom0A0 bottom0A0.100.00 A0B0 A0B0.100.00 B0C0 B0C0.100.00 C0right0"/>
    </vehicle>
    <vehicle id="51" type="emergency" depart="25.50">
        <route edges="right2C2 right2C2.100.00 C2B2 C2B2.100.00 B2top1"/>
    </vehicle>
    <vehicle id="52" type="emergency" depart="26.00">
        <route edges="left0A0 left0A0.100.00 A0B0 A0B0.100.00 B0C0 B0C0.100.00 C0bottom2"/>
    </vehicle>
    <vehicle id="53" type="emergency" depart="26.50">
        <route edges="bottom1B0 bottom1B0.100.00 B0B1 B0B1.100.00 B1C1 B1C1.100.00 C1C0 C1C0.100.00 C0B0 C0B0.100.00 B0bottom1"/>
    </vehicle>
    <vehicle id="54" type="emergency" depart="27.00">
        <route edges="left2A2 left2A2.100.00 A2B2 A2B2.100.00 B2C2 B2C2.100.00 C2top2"/>
    </vehicle>
    <vehicle id="55" type="emergency" depart="27.50">
        <route edges="top1B2 top1B2.100.00 B2A2 B2A2.100.00 A2left2"/>
    </vehicle>
    <vehicle id="56" type="emergency" depart="28.00">
        <route edges="right0C0 right0C0.100.00 C0B0 C0B0.100.00 B0A0 B0A0.100.00 A0A1 A0A1.100.00 A1left1"/>
    </vehicle>
    <vehicle id="57" type="emergency" depart="28.50">
        <route edges="top1B2 top1B2.100.00 B2C2 B2C2.100.00 C2right2"/>
    </vehicle>
    <vehicle id="58" type="emergency" depart="29.00">
        <route edges="left0A0 left0A0.100.00 A0B0 A0B0.100.00 B0C0 B0C0.100.00 C0bottom2"/>
    </vehicle>
    <vehicle id="59" type="emergency" depart="29.50">
        <route edges="right1C1 right1C1.100.00 C1B1 C1B1.100.00 B1A1 B1A1.100.00 A1A0 A1A0.100.00 A0left0"/>
    </vehicle>
    <vehicle id="60" type="emergency" depart="30.00">
        <route edges="top0A2 top0A2.100.00 A2B2 A2B2.100.00 B2top1"/>
    </vehicle>
    <vehicle id="61" type="emergency" depart="30.50">
        <route edges="top0A2 top0A2.100.00 A2B2 A2B2.100.00 B2top1"/>
    </vehicle>
    <vehicle id="62" type="emergency" depart="31.00">
        <route edges="bottom0A0 bottom0A0.100.00 A0A1 A0A1.100.00 A1A2 A1A2.100.00 A2left2"/>
    </vehicle>
    <vehicle id="63" type="emergency" depart="31.50">
        <route edges="bottom0A0 bottom0A0.100.00 A0A1 A0A1.100.00 A1A2 A1A2.100.00 A2B2 A2B2.100.00 B2C2 B2C2.100.00 C2top2"/>
    </vehicle>
    <vehicle id="64" type="emergency" depart="32.00">
        <route edges="top1B2 top1B2.100.00 B2B1 B2B1.100.00 B1C1 B1C1.100.00 C1right1"/>
    </vehicle>
    <vehicle id="65" type="emergency" depart="32.50">
        <route edges="left0A0 left0A0.100.00 A0bottom0"/>
    </vehicle>
    <vehicle id="66" type="emergency" depart="33.00">
        <route edges="top1B2 top1B2.100.00 B2C2 B2C2.100.00 C2top2"/>
    </vehicle>
    <vehicle id="67" type="emergency" depart="33.50">
        <route edges="bottom1B0 bottom1B0.100.00 B0B1 B0B1.100.00 B1C1 B1C1.100.00 C1C0 C1C0.100.00 C0B0 C0B0.100.00 B0bottom1"/>
    </vehicle>
    <vehicle id="68" type="emergency" depart="34.00">
        <route edges="bottom0A0 bottom0A0.100.00 A0A1 A0A1.100.00 A1B1 A1B1.100.00 B1C1 B1C1.100.00 C1right1"/>
    </vehicle>
    <vehicle id="69" type="emergency" depart="34.50">
        <route edges="top0A2 top0A2.100.00 A2A1 A2A1.100.00 A1A0 A1A0.100.00 A0left0"/>
    </vehicle>
    <vehicle id="70" type="emergency" depart="35.00">
        <route edges="left2A2 left2A2.100.00 A2B2 A2B2.100.00 B2top1"/>
    </vehicle>
    <vehicle id="71" type="emergency" depart="35.50">
        <route edges="left0A0 left0A0.100.00 A0B0 A0B0.100.00 B0C0 B0C0.100.00 C0C1 C0C1.100.00 C1C2 C1C2.100.00 C2right2"/>
    </vehicle>
    <vehicle id="72" type="emergency" depart="36.00">
        <route edges="left2A2 left2A2.100.00 A2A1 A2A1.100.00 A1left1"/>
    </vehicle>
    <vehicle id="73" type="emergency" depart="36.50">
        <route edges="right0C0 right0C0.100.00 C0B0 C0B0.100.00 B0B1 B0B1.100.00 B1C1 B1C1.100.00 C1C0 C1C0.100.00 C0right0"/>
    </vehicle>
    <vehicle id="74" type="emergency" depart="37.00">
        <route edges="bottom2C0 bottom2C0.100.00 C0C1 C0C1.100.00 C1C2 C1C2.100.00 C2B2 C2B2.100.00 B2A2 B2A2.100.00 A2left2"/>
    </vehicle>
    <vehicle id="75" type="emergency" depart="37.50">
        <route edges="top2C2 top2C2.100.00 C2C1 C2C1.100.00 C1C0 C1C0.100.00 C0bottom2"/>
    </vehicle>
    <vehicle id="76" type="emergency" depart="38.00">
        <route edges="left2A2 left2A2.100.00 A2B2 A2B2.100.00 B2top1"/>
    </vehicle>
    <vehicle id="77" type="emergency" depart="38.50">
        <route edges="bottom1B0 bottom1B0.100.00 B0B1 B0B1.100.00 B1A1 B1A1.100.00 A1left1"/>
    </vehicle>
    <vehicle id="78" type="emergency" depart="39.00">
        <route edges="left1A1 left1A1.100.00 A1B1 A1B1.100.00 B1C1 B1C1.100.00 C1C0 C1C0.100.00 C0bottom2"/>
    </vehicle>
    <vehicle id="79" type="emergency" depart="39.50">
        <route edges="bottom2C0 bottom2C0.100.00 C0C1 C0C1.100.00 C1B1 C1B1.100.00 B1A1 B1A1.100.00 A1left1"/>
    </vehicle>
    <vehicle id="80" type="emergency" depart="40.00">
        <route edges="bottom0A0 bottom0A0.100.00 A0B0 A0B0.100.00 B0C0 B0C0.100.00 C0bottom2"/>
    </vehicle>
    <vehicle id="81" type="emergency" depart="40.50">
        <route edges="bottom2C0 bottom2C0.100.00 C0C1 C0C1.100.00 C1C2 C1C2.100.00 C2right2"/>
    </vehicle>
    <vehicle id="82" type="emergency" depart="41.00">
        <route edges="top1B2 top1B2.100.00 B2B1 B2B1.100.00 B1B0 B1B0.100.00 B0A0 B0A0.100.00 A0bottom0"/>
    </vehicle>
    <vehicle id="83" type="emergency" depart="41.50">
        <route edges="bottom2C0 bottom2C0.100.00 C0right0"/>
    </vehicle>
    <vehicle id="84" type="emergency" depart="42.00">
        <route edges="bottom2C0 bottom2C0.100.00 C0B0 C0B0.100.00 B0A0 B0A0.100.00 A0left0"/>
    </vehicle>
    <vehicle id="85" type="emergency" depart="42.50">
        <route edges="top2C2 top2C2.100.00 C2B2 C2B2.100.00 B2top1"/>
    </vehicle>
    <vehicle id="86" type="emergency" depart="43.00">
        <route edges="left2A2 left2A2.100.00 A2B2 A2B2.100.00 B2C2 B2C2.100.00 C2C1 C2C1.100.00 C1right1"/>
    </vehicle>
    <vehicle id="87" type="emergency" depart="43.50">
        <route edges="top0A2 top0A2.100.00 A2A1 A2A1.100.00 A1left1"/>
    </vehicle>
    <vehicle id="88" type="emergency" depart="44.00">
        <route edges="bottom1B0 bottom1B0.100.00 B0B1 B0B1.100.00 B1C1 B1C1.100.00 C1C0 C1C0.100.00 C0B0 C0B0.100.00 B0bottom1"/>
    </vehicle>
    <vehicle id="89" type="emergency" depart="44.50">
        <route edges="left2A2 left2A2.100.00 A2B2 A2B2.100.00 B2B1 B2B1.100.00 B1B0 B1B0.100.00 B0bottom1"/>
    </vehicle>
    <vehicle id="90" type="emergency" depart="45.00">
        <route edges="right2C2 right2C2.100.00 C2C1 C2C1.100.00 C1C0 C1C0.100.00 C0right0"/>
    </vehicle>
    <vehicle id="91" type="emergency" depart="45.50">
        <route edges="top2C2 top2C2.100.00 C2C1 C2C1.100.00 C1C0 C1C0.100.00 C0B0 C0B0.100.00 B0A0 B0A0.100.00 A0left0"/>
    </vehicle>
    <vehicle id="92" type="emergency" depart="46.00">
        <route edges="left1A1 left1A1.100.00 A1A2 A1A2.100.00 A2top0"/>
    </vehicle>
    <vehicle id="93" type="emergency" depart="46.50">
        <route edges="top1B2 top1B2.100.00 B2B1 B2B1.100.00 B1A1 B1A1.100.00 A1left1"/>
    </vehicle>
    <vehicle id="94" type="emergency" depart="47.00">
        <route edges="bottom2C0 bottom2C0.100.00 C0B0 C0B0.100.00 B0bottom1"/>
    </vehicle>
    <vehicle id="95" type="emergency" depart="47.50">
        <route edges="left2A2 left2A2.100.00 A2B2 A2B2.100.00 B2B1 B2B1.100.00 B1A1 B1A1.100.00 A1A2 A1A2.100.00 A2left2"/>
    </vehicle>
    <vehicle id="96" type="emergency" depart="48.00">
        <route edges="bottom2C0 bottom2C0.100.00 C0C1 C0C1.100.00 C1C2 C1C2.100.00 C2top2"/>
    </vehicle>
    <vehicle id="97" type="emergency" depart="48.50">
        <route edges="left2A2 left2A2.100.00 A2B2 A2B2.100.00 B2C2 B2C2.100.00 C2right2"/>
    </vehicle>
    <vehicle id="98" type="emergency" depart="49.00">
        <route edges="right0C0 right0C0.100.00 C0B0 C0B0.100.00 B0A0 B0A0.100.00 A0bottom0"/>
    </vehicle>
    <vehicle id="99" type="emergency" depart="49.50">
        <route edges="top2C2 top2C2.100.00 C2right2"/>
    </vehicle>
    <vehicle id="100" type="emergency" depart="50.00">
        <route edges="top2C2 top2C2.100.00 C2C1 C2C1.100.00 C1B1 C1B1.100.00 B1B2 B1B2.100.00 B2C2 B2C2.100.00 C2top2"/>
    </vehicle>
    <vehicle id="101" type="emergency" depart="50.50">
        <route edges="top1B2 top1B2.100.00 B2B1 B2B1.100.00 B1B0 B1B0.100.00 B0A0 B0A0.100.00 A0left0"/>
    </vehicle>
    <vehicle id="102" type="emergency" depart="51.00">
        <route edges="left2A2 left2A2.100.00 A2A1 A2A1.100.00 A1left1"/>
    </vehicle>
    <vehicle id="103" type="emergency" depart="51.50">
        <route edges="left1A1 left1A1.100.00 A1A0 A1A0.100.00 A0bottom0"/>
    </vehicle>
    <vehicle id="104" type="emergency" depart="52.00">
        <route edges="left1A1 left1A1.100.00 A1B1 A1B1.100.00 B1C1 B1C1.100.00 C1C2 C1C2.100.00 C2top2"/>
    </vehicle>
    <vehicle id="105" type="emergency" depart="52.50">
        <route edges="left0A0 left0A0.100.00 A0B0 A0B0.100.00 B0C0 B0C0.100.00 C0C1 C0C1.100.00 C1right1"/>
    </vehicle>
    <vehicle id="106" type="emergency" depart="53.00">
        <route edges="left2A2 left2A2.100.00 A2B2 A2B2.100.00 B2B1 B2B1.100.00 B1B0 B1B0.100.00 B0bottom1"/>
    </vehicle>
    <vehicle id="107" type="emergency" depart="53.50">
        <route edges="top2C2 top2C2.100.00 C2C1 C2C1.100.00 C1B1 C1B1.100.00 B1B2 B1B2.100.00 B2C2 B2C2.100.00 C2top2"/>
    </vehicle>
    <vehicle id="108" type="emergency" depart="54.00">
        <route edges="right0C0 right0C0.100.00 C0B0 C0B0.100.00 B0B1 B0B1.100.00 B1C1 B1C1.100.00 C1C0 C1C0.100.00 C0right0"/>
    </vehicle>
    <vehicle id="109" type="emergency" depart="54.50">
        <route edges="bottom1B0 bottom1B0.100.00 B0B1 B0B1.100.00 B1B2 B1B2.100.00 B2A2 B2A2.100.00 A2left2"/>
    </vehicle>
    <vehicle id="110" type="emergency" depart="55.00">
        <route edges="top2C2 top2C2.100.00 C2B2 C2B2.100.00 B2top1"/>
    </vehicle>
    <vehicle id="111" type="emergency" depart="55.50">
        <route edges="right0C0 right0C0.100.00 C0B0 C0B0.100.00 B0B1 B0B1.100.00 B1C1 B1C1.100.00 C1C0 C1C0.100.00 C0right0"/>
    </vehicle>
    <vehicle id="112" type="emergency" depart="56.00">
        <route edges="bottom0A0 bottom0A0.100.00 A0B0 A0B0.100.00 B0C0 B0C0.100.00 C0bottom2"/>
    </vehicle>
    <vehicle id="113" type="emergency" depart="56.50">
        <route edges="right0C0 right0C0.100.00 C0C1 C0C1.100.00 C1C2 C1C2.100.00 C2right2"/>
    </vehicle>
    <vehicle id="114" type="emergency" depart="57.00">
        <route edges="bottom1B0 bottom1B0.100.00 B0B1 B0B1.100.00 B1B2 B1B2.100.00 B2C2 B2C2.100.00 C2top2"/>
    </vehicle>
    <vehicle id="115" type="emergency" depart="57.50">
        <route edges="bottom0A0 bottom0A0.100.00 A0A1 A0A1.100.00 A1left1"/>
    </vehicle>
    <vehicle id="116" type="emergency" depart="58.00">
        <route edges="right1C1 right1C1.100.00 C1C0 C1C0.100.00 C0right0"/>
    </vehicle>
    <vehicle id="117" type="emergency" depart="58.50">
        <route edges="bottom2C0 bottom2C0.100.00 C0B0 C0B0.100.00 B0A0 B0A0.100.00 A0left0"/>
    </vehicle>
    <vehicle id="118" type="emergency" depart="59.00">
        <route edges="top1B2 top1B2.100.00 B2B1 B2B1.100.00 B1A1 B1A1.100.00 A1left1"/>
    </vehicle>
    <vehicle id="119" type="emergency" depart="59.50">
        <route edges="right1C1 right1C1.100.00 C1C0 C1C0.100.00 C0bottom2"/>
    </vehicle>
    <vehicle id="120" type="emergency" depart="60.00">
        <route edges="left2A2 left2A2.100.00 A2B2 A2B2.100.00 B2C2 B2C2.100.00 C2C1 C2C1.100.00 C1C0 C1C0.100.00 C0bottom2"/>
    </vehicle>
    <vehicle id="121" type="emergency" depart="60.50">
        <route edges="right0C0 right0C0.100.00 C0C1 C0C1.100.00 C1C2 C1C2.100.00 C2top2"/>
    </vehicle>
    <vehicle id="122" type="emergency" depart="61.00">
        <route edges="bottom2C0 bottom2C0.100.00 C0right0"/>
    </vehicle>
    <vehicle id="123" type="emergency" depart="61.50">
        <route edges="bottom2C0 bottom2C0.100.00 C0C1 C0C1.100.00 C1C2 C1C2.100.00 C2B2 C2B2.100.00 B2A2 B2A2.100.00 A2top0"/>
    </vehicle>
    <vehicle id="124" type="emergency" depart="62.00">
        <route edges="right2C2 right2C2.100.00 C2B2 C2B2.100.00 B2A2 B2A2.100.00 A2left2"/>
    </vehicle>
    <vehicle id="125" type="emergency" depart="62.50">
        <route edges="left0A0 left0A0.100.00 A0B0 A0B0.100.00 B0C0 B0C0.100.00 C0C1 C0C1.100.00 C1right1"/>
    </vehicle>
    <vehicle id="126" type="emergency" depart="63.00">
        <route edges="bottom0A0 bottom0A0.100.00 A0B0 A0B0.100.00 B0bottom1"/>
    </vehicle>
    <vehicle id="127" type="emergency" depart="63.50">
        <route edges="top2C2 top2C2.100.00 C2C1 C2C1.100.00 C1B1 C1B1.100.00 B1B2 B1B2.100.00 B2C2 B2C2.100.00 C2top2"/>
    </vehicle>
    <vehicle id="128" type="emergency" depart="64.00">
        <route edges="bottom0A0 bottom0A0.100.00 A0A1 A0A1.100.00 A1left1"/>
    </vehicle>
    <vehicle id="129" type="emergency" depart="64.50">
        <route edges="left0A0 left0A0.100.00 A0B0 A0B0.100.00 B0C0 B0C0.100.00 C0C1 C0C1.100.00 C1C2 C1C2.100.00 C2top2"/>
    </vehicle>
    <vehicle id="130" type="emergency" depart="65.00">
        <route edges="top1B2 top1B2.100.00 B2C2 B2C2.100.00 C2right2"/>
    </vehicle>
    <vehicle id="131" type="emergency" depart="65.50">
        <route edges="left1A1 left1A1.100.00 A1A0 A1A0.100.00 A0left0"/>
    </vehicle>
    <vehicle id="132" type="emergency" depart="66.00">
        <route edges="top1B2 top1B2.100.00 B2B1 B2B1.100.00 B1B0 B1B0.100.00 B0C0 B0C0.100.00 C0right0"/>
    </vehicle>
    <vehicle id="133" type="emergency" depart="66.50">
        <route edges="right1C1 right1C1.100.00 C1C2 C1C2.100.00 C2top2"/>
    </vehicle>
    <vehicle id="134" type="emergency" depart="67.00">
        <route edges="right1C1 right1C1.100.00 C1B1 C1B1.100.00 B1A1 B1A1.100.00 A1A0 A1A0.100.00 A0bottom0"/>
    </vehicle>
    <vehicle id="135" type="emergency" depart="67.50">
        <route edges="top0A2 top0A2.100.00 A2left2"/>
    </vehicle>
    <vehicle id="136" type="emergency" depart="68.00">
        <route edges="right1C1 right1C1.100.00 C1C2 C1C2.100.00 C2top2"/>
    </vehicle>
    <vehicle id="137" type="emergency" depart="68.50">
        <route edges="bottom1B0 bottom1B0.100.00 B0A0 B0A0.100.00 A0left0"/>
    </vehicle>
    <vehicle id="138" type="emergency" depart="69.00">
        <route edges="bottom1B0 bottom1B0.100.00 B0B1 B0B1.100.00 B1B2 B1B2.100.00 B2top1"/>
    </vehicle>
    <vehicle id="139" type="emergency" depart="69.50">
        <route edges="left0A0 left0A0.100.00 A0B0 A0B0.100.00 B0C0 B0C0.100.00 C0bottom2"/>
    </vehicle>
    <vehicle id="140" type="emergency" depart="70.00">
        <route edges="right2C2 right2C2.100.00 C2B2 C2B2.100.00 B2A2 B2A2.100.00 A2A1 A2A1.100.00 A1left1"/>
    </vehicle>
    <vehicle id="141" type="emergency" depart="70.50">
        <route edges="right1C1 right1C1.100.00 C1B1 C1B1.100.00 B1A1 B1A1.100.00 A1A2 A1A2.100.00 A2left2"/>
    </vehicle>
    <vehicle id="142" type="emergency" depart="71.00">
        <route edges="left2A2 left2A2.100.00 A2B2 A2B2.100.00 B2C2 B2C2.100.00 C2right2"/>
    </vehicle>
    <vehicle id="143" type="emergency" depart="71.50">
        <route edges="top1B2 top1B2.100.00 B2B1 B2B1.100.00 B1B0 B1B0.100.00 B0A0 B0A0.100.00 A0left0"/>
    </vehicle>
    <vehicle id="144" type="emergency" depart="72.00">
        <route edges="left2A2 left2A2.100.00 A2B2 A2B2.100.00 B2B1 B2B1.100.00 B1A1 B1A1.100.00 A1A2 A1A2.100.00 A2left2"/>
    </vehicle>
    <vehicle id="145" type="emergency" depart="72.50">
        <route edges="bottom0A0 bottom0A0.100.00 A0A1 A0A1.100.00 A1B1 A1B1.100.00 B1C1 B1C1.100.00 C1right1"/>
    </vehicle>
    <vehicle id="146" type="emergency" depart="73.00">
        <route edges="right1C1 right1C1.100.00 C1B1 C1B1.100.00 B1A1 B1A1.100.00 A1A2 A1A2.100.00 A2left2"/>
    </vehicle>
    <vehicle id="147" type="emergency" depart="73.50">
        <route edges="right2C2 right2C2.100.00 C2B2 C2B2.100.00 B2top1"/>
    </vehicle>
    <vehicle id="148" type="emergency" depart="74.00">
        <route edges="left2A2 left2A2.100.00 A2A1 A2A1.100.00 A1A0 A1A0.100.00 A0bottom0"/>
    </vehicle>
    <vehicle id="149" type="emergency" depart="74.50">
        <route edges="bottom0A0 bottom0A0.100.00 A0A1 A0A1.100.00 A1A2 A1A2.100.00 A2B2 A2B2.100.00 B2C2 B2C2.100.00 C2right2"/>
    </vehicle>
    <vehicle id="150" type="emergency" depart="75.00">
        <route edges="top1B2 top1B2.100.00 B2B1 B2B1.100.00 B1A1 B1A1.100.00 A1A2 A1A2.100.00 A2B2 A2B2.100.00 B2top1"/>
    </vehicle>
    <vehicle id="151" type="emergency" depart="75.50">
        <route edges="top1B2 top1B2.100.00 B2B1 B2B1.100.00 B1A1 B1A1.100.00 A1A2 A1A2.100.00 A2B2 A2B2.100.00 B2top1"/>
    </vehicle>
    <vehicle id="152" type="emergency" depart="76.00">
        <route edges="bottom1B0 bottom1B0.100.00 B0A0 B0A0.100.00 A0left0"/>
    </vehicle>
    <vehicle id="153" type="emergency" depart="76.50">
        <route edges="left0A0 left0A0.100.00 A0B0 A0B0.100.00 B0C0 B0C0.100.00 C0C1 C0C1.100.00 C1C2 C1C2.100.00 C2right2"/>
    </vehicle>
    <vehicle id="154" type="emergency" depart="77.00">
        <route edges="top0A2 top0A2.100.00 A2B2 A2B2.100.00 B2C2 B2C2.100.00 C2right2"/>
    </vehicle>
    <vehicle id="155" type="emergency" depart="77.50">
        <route edges="top1B2 top1B2.100.00 B2B1 B2B1.100.00 B1A1 B1A1.100.00 A1left1"/>
    </vehicle>
    <vehicle id="156" type="emergency" depart="78.00">
        <route edges="bottom2C0 bottom2C0.100.00 C0B0 C0B0.100.00 B0A0 B0A0.100.00 A0left0"/>
    </vehicle>
    <vehicle id="157" type="emergency" depart="78.50">
        <route edges="top0A2 top0A2.100.00 A2B2 A2B2.100.00 B2C2 B2C2.100.00 C2right2"/>
    </vehicle>
    <vehicle id="158" type="emergency" depart="79.00">
        <route edges="left1A1 left1A1.100.00 A1B1 A1B1.100.00 B1C1 B1C1.100.00 C1C0 C1C0.100.00 C0bottom2"/>
    </vehicle>
    <vehicle id="159" type="emergency" depart="79.50">
        <route edges="bottom1B0 bottom1B0.100.00 B0B1 B0B1.100.00 B1B2 B1B2.100.00 B2C2 B2C2.100.00 C2top2"/>
    </vehicle>
    <vehicle id="160" type="emergency" depart="80.00">
        <route edges="top1B2 top1B2.100.00 B2C2 B2C2.100.00 C2top2"/>
    </vehicle>
    <vehicle id="161" type="emergency" depart="80.50">
        <route edges="top0A2 top0A2.100.00 A2B2 A2B2.100.00 B2C2 B2C2.100.00 C2right2"/>
    </vehicle>
    <vehicle id="162" type="emergency" depart="81.00">
        <route edges="bottom0A0 bottom0A0.100.00 A0B0 A0B0.100.00 B0C0 B0C0.100.00 C0right0"/>
    </vehicle>
    <vehicle id="163" type="emergency" depart="81.50">
        <route edges="left0A0 left0A0.100.00 A0B0 A0B0.100.00 B0C0 B0C0.100.00 C0C1 C0C1.100.00 C1C2 C1C2.100.00 C2top2"/>
    </vehicle>
    <vehicle id="164" type="emergency" depart="82.00">
        <route edges="top0A2 top0A2.100.00 A2B2 A2B2.100.00 B2C2 B2C2.100.00 C2right2"/>
    </vehicle>
    <vehicle id="165" type="emergency" depart="82.50">
        <route edges="top0A2 top0A2.100.00 A2left2"/>
    </vehicle>
    <vehicle id="166" type="emergency" depart="83.00">
        <route edges="top0A2 top0A2.100.00 A2A1 A2A1.100.00 A1A0 A1A0.100.00 A0left0"/>
    </vehicle>
    <vehicle id="167" type="emergency" depart="83.50">
        <route edges="top1B2 top1B2.100.00 B2C2 B2C2.100.00 C2right2"/>
    </vehicle>
    <vehicle id="168" type="emergency" depart="84.00">
        <route edges="bottom2C0 bottom2C0.100.00 C0C1 C0C1.100.00 C1right1"/>
    </vehicle>
    <vehicle id="169" type="emergency" depart="84.50">
        <route edges="left2A2 left2A2.100.00 A2B2 A2B2.100.00 B2B1 B2B1.100.00 B1A1 B1A1.100.00 A1A2 A1A2.100.00 A2left2"/>
    </vehicle>
    <vehicle id="170" type="emergency" depart="85.00">
        <route edges="top0A2 top0A2.100.00 A2A1 A2A1.100.00 A1left1"/>
    </vehicle>
    <vehicle id="171" type="emergency" depart="85.50">
        <route edges="bottom0A0 bottom0A0.100.00 A0A1 A0A1.100.00 A1left1"/>
    </vehicle>
    <vehicle id="172" type="emergency" depart="86.00">
        <route edges="left0A0 left0A0.100.00 A0B0 A0B0.100.00 B0C0 B0C0.100.00 C0C1 C0C1.100.00 C1C2 C1C2.100.00 C2right2"/>
    </vehicle>
    <vehicle id="173" type="emergency" depart="86.50">
        <route edges="top2C2 top2C2.100.00 C2B2 C2B2.100.00 B2A2 B2A2.100.00 A2left2"/>
    </vehicle>
    <vehicle id="174" type="emergency" depart="87.00">
        <route edges="right1C1 right1C1.100.00 C1B1 C1B1.100.00 B1A1 B1A1.100.00 A1A2 A1A2.100.00 A2top0"/>
    </vehicle>
    <vehicle id="175" type="emergency" depart="87.50">
        <route edges="top2C2 top2C2.100.00 C2B2 C2B2.100.00 B2top1"/>
    </vehicle>