<routes xmlns:xsi="http://www.w3.org/2001/XMLSchema-instance" xsi:noNamespaceSchemaLocation="http://sumo.dlr.de/xsd/routes_file.xsd">
    <vehicle depart="0.00" id="0">
        <route edges="bottom1B0 bottom1B0.100.00 B0B1 B0B1.100.00 B1C1 B1C1.100.00 C1C0 C1C0.100.00 C0B0 C0B0.100.00 B0bottom1" />
    </vehicle>
    <vehicle depart="0.50" id="1">
        <route edges="top0A2 top0A2.100.00 A2A1 A2A1.100.00 A1A0 A1A0.100.00 A0B0 A0B0.100.00 B0C0 B0C0.100.00 C0right0" />
    </vehicle>
    <vehicle depart="1.00" id="2">
        <route edges="right2C2 right2C2.100.00 C2B2 C2B2.100.00 B2B1 B2B1.100.00 B1B0 B1B0.100.00 B0bottom1" />
    </vehicle>
    <vehicle depart="1.50" id="3">
        <route edges="top0A2 top0A2.100.00 A2B2 A2B2.100.00 B2top1" />
    </vehicle>
    <vehicle depart="2.00" id="4">
        <route edges="bottom0A0 bottom0A0.100.00 A0B0 A0B0.100.00 B0bottom1" />
    </vehicle>
    <vehicle depart="2.50" id="5">
        <route edges="bottom0A0 bottom0A0.100.00 A0A1 A0A1.100.00 A1A2 A1A2.100.00 A2B2 A2B2.100.00 B2C2 B2C2.100.00 C2top2" />
    </vehicle>
    <vehicle depart="3.00" id="6">
        <route edges="top2C2 top2C2.100.00 C2B2 C2B2.100.00 B2A2 B2A2.100.00 A2top0" />
    </vehicle>
    <vehicle depart="3.50" id="7">
        <route edges="left0A0 left0A0.100.00 A0B0 A0B0.100.00 B0C0 B0C0.100.00 C0C1 C0C1.100.00 C1right1" />
    </vehicle>
    <vehicle depart="4.00" id="8">
        <route edges="bottom2C0 bottom2C0.100.00 C0C1 C0C1.100.00 C1B1 C1B1.100.00 B1A1 B1A1.100.00 A1left1" />
    </vehicle>
    <vehicle depart="4.50" id="9">
        <route edges="bottom2C0 bottom2C0.100.00 C0C1 C0C1.100.00 C1C2 C1C2.100.00 C2B2 C2B2.100.00 B2A2 B2A2.100.00 A2top0" />
    </vehicle>
    <vehicle depart="5.00" id="10">
        <route edges="right1C1 right1C1.100.00 C1C2 C1C2.100.00 C2top2" />
    </vehicle>
    <vehicle depart="5.50" id="11">
        <route edges="bottom2C0 bottom2C0.100.00 C0C1 C0C1.100.00 C1C2 C1C2.100.00 C2top2" />
    </vehicle>
    <vehicle depart="6.00" id="12">
        <route edges="right0C0 right0C0.100.00 C0C1 C0C1.100.00 C1C2 C1C2.100.00 C2right2" />
    </vehicle>
    <vehicle depart="6.50" id="13">
        <route edges="top0A2 top0A2.100.00 A2A1 A2A1.100.00 A1A0 A1A0.100.00 A0left0" />
    </vehicle>
    <vehicle depart="7.00" id="14">
        <route edges="right1C1 right1C1.100.00 C1B1 C1B1.100.00 B1A1 B1A1.100.00 A1A0 A1A0.100.00 A0left0" />
    </vehicle>
    <vehicle depart="7.50" id="15">
        <route edges="bottom0A0 bottom0A0.100.00 A0A1 A0A1.100.00 A1A2 A1A2.100.00 A2top0" />
    </vehicle>
    <vehicle depart="8.00" id="16">
        <route edges="top0A2 top0A2.100.00 A2B2 A2B2.100.00 B2top1" />
    </vehicle>
    <vehicle depart="8.50" id="17">
        <route edges="bottom2C0 bottom2C0.100.00 C0C1 C0C1.100.00 C1C2 C1C2.100.00 C2right2" />
    </vehicle>
    <vehicle depart="9.00" id="18">
        <route edges="top1B2 top1B2.100.00 B2B1 B2B1.100.00 B1A1 B1A1.100.00 A1left1" />
    </vehicle>
    <vehicle depart="9.50" id="19">
        <route edges="left2A2 left2A2.100.00 A2B2 A2B2.100.00 B2C2 B2C2.100.00 C2C1 C2C1.100.00 C1C0 C1C0.100.00 C0bottom2" />
    </vehicle>
    <vehicle depart="10.00" id="20">
        <route edges="top1B2 top1B2.100.00 B2B1 B2B1.100.00 B1B0 B1B0.100.00 B0A0 B0A0.100.00 A0left0" />
    </vehicle>
    <vehicle depart="10.50" id="21">
        <route edges="right0C0 right0C0.100.00 C0C1 C0C1.100.00 C1C2 C1C2.100.00 C2top2" />
    </vehicle>
    <vehicle depart="11.00" id="22">
        <route edges="right1C1 right1C1.100.00 C1C0 C1C0.100.00 C0right0" />
    </vehicle>
    <vehicle depart="11.50" id="23">
        <route edges="top0A2 top0A2.100.00 A2B2 A2B2.100.00 B2top1" />
    </vehicle>
    <vehicle depart="12.00" id="24">
        <route edges="left0A0 left0A0.100.00 A0B0 A0B0.100.00 B0C0 B0C0.100.00 C0bottom2" />
    </vehicle>
    <vehicle depart="12.50" id="25">
        <route edges="right0C0 right0C0.100.00 C0B0 C0B0.100.00 B0A0 B0A0.100.00 A0A1 A0A1.100.00 A1A2 A1A2.100.00 A2top0" />
    </vehicle>
    <vehicle depart="13.00" id="26">
        <route edges="top1B2 top1B2.100.00 B2A2 B2A2.100.00 A2top0" />
    </vehicle>
    <vehicle depart="13.50" id="27">
        <route edges="left2A2 left2A2.100.00 A2B2 A2B2.100.00 B2C2 B2C2.100.00 C2C1 C2C1.100.00 C1right1" />
    </vehicle>
    <vehicle depart="14.00" id="28">
        <route edges="top0A2 top0A2.100.00 A2B2 A2B2.100.00 B2C2 B2C2.100.00 C2right2" />
    </vehicle>
    <vehicle depart="14.50" id="29">
        <route edges="right1C1 right1C1.100.00 C1B1 C1B1.100.00 B1A1 B1A1.100.00 A1A2 A1A2.100.00 A2left2" />
    </vehicle>
    <vehicle depart="15.00" id="30">
        <route edges="top1B2 top1B2.100.00 B2C2 B2C2.100.00 C2right2" />
    </vehicle>
    <vehicle depart="15.50" id="31">
        <route edges="right2C2 right2C2.100.00 C2C1 C2C1.100.00 C1right1" />
    </vehicle>
    <vehicle depart="16.00" id="32">
        <route edges="right0C0 right0C0.100.00 C0B0 C0B0.100.00 B0bottom1" />
    </vehicle>
    <vehicle depart="16.50" id="33">
        <route edges="right0C0 right0C0.100.00 C0B0 C0B0.100.00 B0A0 B0A0.100.00 A0left0" />
    </vehicle>
    <vehicle depart="17.00" id="34">
        <route edges="right2C2 right2C2.100.00 C2C1 C2C1.100.00 C1B1 C1B1.100.00 B1B2 B1B2.100.00 B2C2 B2C2.100.00 C2right2" />
    </vehicle>
    <vehicle depart="17.50" id="35">
        <route edges="bottom1B0 bottom1B0.100.00 B0B1 B0B1.100.00 B1C1 B1C1.100.00 C1right1" />
    </vehicle>
    <vehicle depart="18.00" id="36">
        <route edges="right2C2 right2C2.100.00 C2B2 C2B2.100.00 B2A2 B2A2.100.00 A2A1 A2A1.100.00 A1A0 A1A0.100.00 A0left0" />
    </vehicle>
    <vehicle depart="18.50" id="37">
        <route edges="bottom0A0 bottom0A0.100.00 A0B0 A0B0.100.00 B0C0 B0C0.100.00 C0bottom2" />
    </vehicle>
    <vehicle depart="19.00" id="38">
        <route edges="bottom2C0 bottom2C0.100.00 C0C1 C0C1.100.00 C1C2 C1C2.100.00 C2B2 C2B2.100.00 B2A2 B2A2.100.00 A2left2" />
    </vehicle>
    <vehicle depart="19.50" id="39">
        <route edges="right1C1 right1C1.100.00 C1C0 C1C0.100.00 C0bottom2" />
    </vehicle>
    <vehicle depart="20.00" id="40">
        <route edges="right2C2 right2C2.100.00 C2B2 C2B2.100.00 B2top1" />
    </vehicle>
    <vehicle depart="20.50" id="41">
        <route edges="left1A1 left1A1.100.00 A1A0 A1A0.100.00 A0bottom0" />
    </vehicle>
    <vehicle depart="21.00" id="42">
        <route edges="bottom1B0 bottom1B0.100.00 B0B1 B0B1.100.00 B1A1 B1A1.100.00 A1left1" />
    </vehicle>
    <vehicle depart="21.50" id="43">
        <route edges="right0C0 right0C0.100.00 C0B0 C0B0.100.00 B0B1 B0B1.100.00 B1C1 B1C1.100.00 C1C0 C1C0.100.00 C0right0" />
    </vehicle>
    <vehicle depart="22.00" id="44">
        <route edges="bottom2C0 bottom2C0.100.00 C0C1 C0C1.100.00 C1C2 C1C2.100.00 C2B2 C2B2.100.00 B2A2 B2A2.100.00 A2top0" />
    </vehicle>
    <vehicle depart="22.50" id="45">
        <route edges="top2C2 top2C2.100.00 C2B2 C2B2.100.00 B2A2 B2A2.100.00 A2top0" />
    </vehicle>
    <vehicle depart="23.00" id="46">
        <route edges="right2C2 right2C2.100.00 C2C1 C2C1.100.00 C1C0 C1C0.100.00 C0bottom2" />
    </vehicle>
    <vehicle depart="23.50" id="47">
        <route edges="right1C1 right1C1.100.00 C1B1 C1B1.100.00 B1B0 B1B0.100.00 B0bottom1" />
    </vehicle>
    <vehicle depart="24.00" id="48">
        <route edges="right0C0 right0C0.100.00 C0B0 C0B0.100.00 B0B1 B0B1.100.00 B1C1 B1C1.100.00 C1C0 C1C0.100.00 C0right0" />
    </vehicle>
    <vehicle depart="24.50" id="49">
        <route edges="bottom1B0 bottom1B0.100.00 B0B1 B0B1.100.00 B1C1 B1C1.100.00 C1right1" />
    </vehicle>
    <vehicle depart="25.00" id="50">
        <route edges="top1B2 top1B2.100.00 B2B1 B2B1.100.00 B1B0 B1B0.100.00 B0A0 B0A0.100.00 A0bottom0" />
    </vehicle>
    <vehicle depart="25.50" id="51">
        <route edges="bottom2C0 bottom2C0.100.00 C0C1 C0C1.100.00 C1B1 C1B1.100.00 B1A1 B1A1.100.00 A1left1" />
    </vehicle>
    <vehicle depart="26.00" id="52">
        <route edges="bottom1B0 bottom1B0.100.00 B0A0 B0A0.100.00 A0left0" />
    </vehicle>
    <vehicle depart="26.50" id="53">
        <route edges="right1C1 right1C1.100.00 C1B1 C1B1.100.00 B1A1 B1A1.100.00 A1A0 A1A0.100.00 A0left0" />
    </vehicle>
    <vehicle depart="27.00" id="54">
        <route edges="bottom0A0 bottom0A0.100.00 A0A1 A0A1.100.00 A1A2 A1A2.100.00 A2B2 A2B2.100.00 B2C2 B2C2.100.00 C2top2" />
    </vehicle>
    <vehicle depart="27.50" id="55">
        <route edges="left1A1 left1A1.100.00 A1B1 A1B1.100.00 B1B2 B1B2.100.00 B2top1" />
    </vehicle>
    <vehicle depart="28.00" id="56">
        <route edges="left2A2 left2A2.100.00 A2top0" />
    </vehicle>
    <vehicle depart="28.50" id="57">
        <route edges="left2A2 left2A2.100.00 A2A1 A2A1.100.00 A1left1" />
    </vehicle>
    <vehicle depart="29.00" id="58">
        <route edges="right0C0 right0C0.100.00 C0B0 C0B0.100.00 B0A0 B0A0.100.00 A0A1 A0A1.100.00 A1A2 A1A2.100.00 A2left2" />
    </vehicle>
    <vehicle depart="29.50" id="59">
        <route edges="bottom1B0 bottom1B0.100.00 B0B1 B0B1.100.00 B1A1 B1A1.100.00 A1left1" />
    </vehicle>
    <vehicle depart="30.00" id="60">
        <route edges="left1A1 left1A1.100.00 A1B1 A1B1.100.00 B1C1 B1C1.100.00 C1C2 C1C2.100.00 C2top2" />
    </vehicle>
    <vehicle depart="30.50" id="61">
        <route edges="right1C1 right1C1.100.00 C1C2 C1C2.100.00 C2top2" />
    </vehicle>
    <vehicle depart="31.00" id="62">
        <route edges="left1A1 left1A1.100.00 A1A2 A1A2.100.00 A2left2" />
    </vehicle>
    <vehicle depart="31.50" id="63">
        <route edges="right2C2 right2C2.100.00 C2B2 C2B2.100.00 B2A2 B2A2.100.00 A2A1 A2A1.100.00 A1left1" />
    </vehicle>
    <vehicle depart="32.00" id="64">
        <route edges="top2C2 top2C2.100.00 C2B2 C2B2.100.00 B2A2 B2A2.100.00 A2top0" />
    </vehicle>
    <vehicle depart="32.50" id="65">
        <route edges="left0A0 left0A0.100.00 A0A1 A0A1.100.00 A1A2 A1A2.100.00 A2left2" />
    </vehicle>
    <vehicle depart="33.00" id="66">
        <route edges="left0A0 left0A0.100.00 A0B0 A0B0.100.00 B0C0 B0C0.100.00 C0C1 C0C1.100.00 C1C2 C1C2.100.00 C2top2" />
    </vehicle>
    <vehicle depart="33.50" id="67">
        <route edges="top2C2 top2C2.100.00 C2B2 C2B2.100.00 B2top1" />
    </vehicle>
    <vehicle depart="34.00" id="68">
        <route edges="bottom2C0 bottom2C0.100.00 C0B0 C0B0.100.00 B0A0 B0A0.100.00 A0bottom0" />
    </vehicle>
    <vehicle depart="34.50" id="69">
        <route edges="bottom0A0 bottom0A0.100.00 A0A1 A0A1.100.00 A1A2 A1A2.100.00 A2left2" />
    </vehicle>
    <vehicle depart="35.00" id="70">
        <route edges="right1C1 right1C1.100.00 C1C0 C1C0.100.00 C0bottom2" />
    </vehicle>
    <vehicle depart="35.50" id="71">
        <route edges="top1B2 top1B2.100.00 B2B1 B2B1.100.00 B1C1 B1C1.100.00 C1right1" />
    </vehicle>
    <vehicle depart="36.00" id="72">
        <route edges="left1A1 left1A1.100.00 A1B1 A1B1.100.00 B1C1 B1C1.100.00 C1C0 C1C0.100.00 C0right0" />
    </vehicle>
    <vehicle depart="36.50" id="73">
        <route edges="left2A2 left2A2.100.00 A2B2 A2B2.100.00 B2C2 B2C2.100.00 C2C1 C2C1.100.00 C1C0 C1C0.100.00 C0right0" />
    </vehicle>
    <vehicle depart="37.00" id="74">
        <route edges="bottom2C0 bottom2C0.100.00 C0C1 C0C1.100.00 C1C2 C1C2.100.00 C2top2" />
    </vehicle>
    <vehicle depart="37.50" id="75">
        <route edges="bottom0A0 bottom0A0.100.00 A0B0 A0B0.100.00 B0C0 B0C0.100.00 C0bottom2" />
    </vehicle>
    <vehicle depart="38.00" id="76">
        <route edges="left1A1 left1A1.100.00 A1B1 A1B1.100.00 B1C1 B1C1.100.00 C1right1" />
    </vehicle>
    <vehicle depart="38.50" id="77">
        <route edges="bottom1B0 bottom1B0.100.00 B0B1 B0B1.100.00 B1B2 B1B2.100.00 B2C2 B2C2.100.00 C2right2" />
    </vehicle>
    <vehicle depart="39.00" id="78">
        <route edges="bottom0A0 bottom0A0.100.00 A0B0 A0B0.100.00 B0C0 B0C0.100.00 C0right0" />
    </vehicle>
    <vehicle depart="39.50" id="79">
        <route edges="right2C2 right2C2.100.00 C2B2 C2B2.100.00 B2top1" />
    </vehicle>
    <vehicle depart="40.00" id="80">
        <route edges="bottom2C0 bottom2C0.100.00 C0C1 C0C1.100.00 C1C2 C1C2.100.00 C2B2 C2B2.100.00 B2A2 B2A2.100.00 A2top0" />
    </vehicle>
    <vehicle depart="40.50" id="81">
        <route edges="left2A2 left2A2.100.00 A2A1 A2A1.100.00 A1left1" />
    </vehicle>
    <vehicle depart="41.00" id="82">
        <route edges="bottom1B0 bottom1B0.100.00 B0B1 B0B1.100.00 B1B2 B1B2.100.00 B2C2 B2C2.100.00 C2right2" />
    </vehicle>
    <vehicle depart="41.50" id="83">
        <route edges="right0C0 right0C0.100.00 C0B0 C0B0.100.00 B0A0 B0A0.100.00 A0A1 A0A1.100.00 A1A2 A1A2.100.00 A2left2" />
    </vehicle>
    <vehicle depart="42.00" id="84">
        <route edges="right1C1 right1C1.100.00 C1C0 C1C0.100.00 C0bottom2" />
    </vehicle>
    <vehicle depart="42.50" id="85">
        <route edges="bottom1B0 bottom1B0.100.00 B0C0 B0C0.100.00 C0bottom2" />
    </vehicle>
    <vehicle depart="43.00" id="86">
        <route edges="right1C1 right1C1.100.00 C1B1 C1B1.100.00 B1A1 B1A1.100.00 A1A0 A1A0.100.00 A0left0" />
    </vehicle>
    <vehicle depart="43.50" id="87">
        <route edges="left0A0 left0A0.100.00 A0B0 A0B0.100.00 B0C0 B0C0.100.00 C0C1 C0C1.100.00 C1C2 C1C2.100.00 C2right2" />
    </vehicle>
    <vehicle depart="44.00" id="88">
        <route edges="right0C0 right0C0.100.00 C0B0 C0B0.100.00 B0A0 B0A0.100.00 A0A1 A0A1.100.00 A1left1" />
    </vehicle>
    <vehicle depart="44.50" id="89">
        <route edges="left1A1 left1A1.100.00 A1B1 A1B1.100.00 B1B0 B1B0.100.00 B0bottom1" />
    </vehicle>
    <vehicle depart="45.00" id="90">
        <route edges="right2C2 right2C2.100.00 C2C1 C2C1.100.00 C1B1 C1B1.100.00 B1B2 B1B2.100.00 B2C2 B2C2.100.00 C2right2" />
    </vehicle>
    <vehicle depart="45.50" id="91">
        <route edges="bottom1B0 bottom1B0.100.00 B0A0 B0A0.100.00 A0bottom0" />
    </vehicle>
    <vehicle depart="46.00" id="92">
        <route edges="left2A2 left2A2.100.00 A2A1 A2A1.100.00 A1A0 A1A0.100.00 A0bottom0" />
    </vehicle>
    <vehicle depart="46.50" id="93">
        <route edges="bottom1B0 bottom1B0.100.00 B0A0 B0A0.100.00 A0left0" />
    </vehicle>
    <vehicle depart="47.00" id="94">
        <route edges="bottom1B0 bottom1B0.100.00 B0C0 B0C0.100.00 C0bottom2" />
    </vehicle>
    <vehicle depart="47.50" id="95">
        <route edges="bottom1B0 bottom1B0.100.00 B0B1 B0B1.100.00 B1B2 B1B2.100.00 B2top1" />
    </vehicle>
    <vehicle depart="48.00" id="96">
        <route edges="top2C2 top2C2.100.00 C2C1 C2C1.100.00 C1C0 C1C0.100.00 C0B0 C0B0.100.00 B0A0 B0A0.100.00 A0left0" />
    </vehicle>
    <vehicle depart="48.50" id="97">
        <route edges="top0A2 top0A2.100.00 A2A1 A2A1.100.00 A1A0 A1A0.100.00 A0B0 A0B0.100.00 B0C0 B0C0.100.00 C0bottom2" />
    </vehicle>
    <vehicle depart="49.00" id="98">
        <route edges="bottom2C0 bottom2C0.100.00 C0C1 C0C1.100.00 C1C2 C1C2.100.00 C2top2" />
    </vehicle>
    <vehicle depart="49.50" id="99">
        <route edges="right2C2 right2C2.100.00 C2B2 C2B2.100.00 B2A2 B2A2.100.00 A2top0" />
    </vehicle>
    <vehicle depart="50.00" id="100">
        <route edges="top1B2 top1B2.100.00 B2B1 B2B1.100.00 B1B0 B1B0.100.00 B0A0 B0A0.100.00 A0left0" />
    </vehicle>
    <vehicle depart="50.50" id="101">
        <route edges="top1B2 top1B2.100.00 B2C2 B2C2.100.00 C2right2" />
    </vehicle>
    <vehicle depart="51.00" id="102">
        <route edges="bottom1B0 bottom1B0.100.00 B0B1 B0B1.100.00 B1B2 B1B2.100.00 B2C2 B2C2.100.00 C2right2" />
    </vehicle>
    <vehicle depart="51.50" id="103">
        <route edges="top0A2 top0A2.100.00 A2B2 A2B2.100.00 B2C2 B2C2.100.00 C2right2" />
    </vehicle>
    <vehicle depart="52.00" id="104">
        <route edges="left0A0 left0A0.100.00 A0B0 A0B0.100.00 B0C0 B0C0.100.00 C0right0" />
    </vehicle>
    <vehicle depart="52.50" id="105">
        <route edges="top0A2 top0A2.100.00 A2B2 A2B2.100.00 B2B1 B2B1.100.00 B1A1 B1A1.100.00 A1A2 A1A2.100.00 A2top0" />
    </vehicle>
    <vehicle depart="53.00" id="106">
        <route edges="bottom0A0 bottom0A0.100.00 A0A1 A0A1.100.00 A1B1 A1B1.100.00 B1B0 B1B0.100.00 B0A0 B0A0.100.00 A0bottom0" />
    </vehicle>
    <vehicle depart="53.50" id="107">
        <route edges="right0C0 right0C0.100.00 C0B0 C0B0.100.00 B0B1 B0B1.100.00 B1B2 B1B2.100.00 B2top1" />
    </vehicle>
    <vehicle depart="54.00" id="108">
        <route edges="bottom1B0 bottom1B0.100.00 B0C0 B0C0.100.00 C0bottom2" />
    </vehicle>
    <vehicle depart="54.50" id="109">
        <route edges="bottom0A0 bottom0A0.100.00 A0B0 A0B0.100.00 B0bottom1" />
    </vehicle>
    <vehicle depart="55.00" id="110">
        <route edges="right0C0 right0C0.100.00 C0B0 C0B0.100.00 B0A0 B0A0.100.00 A0A1 A0A1.100.00 A1left1" />
    </vehicle>
    <vehicle depart="55.50" id="111">
        <route edges="bottom0A0 bottom0A0.100.00 A0A1 A0A1.100.00 A1A2 A1A2.100.00 A2B2 A2B2.100.00 B2C2 B2C2.100.00 C2right2" />
    </vehicle>
    <vehicle depart="56.00" id="112">
        <route edges="top1B2 top1B2.100.00 B2B1 B2B1.100.00 B1B0 B1B0.100.00 B0C0 B0C0.100.00 C0bottom2" />
    </vehicle>
    <vehicle depart="56.50" id="113">
        <route edges="bottom0A0 bottom0A0.100.00 A0A1 A0A1.100.00 A1A2 A1A2.100.00 A2B2 A2B2.100.00 B2top1" />
    </vehicle>
    <vehicle depart="57.00" id="114">
        <route edges="top2C2 top2C2.100.00 C2C1 C2C1.100.00 C1right1" />
    </vehicle>
    <vehicle depart="57.50" id="115">
        <route edges="right2C2 right2C2.100.00 C2B2 C2B2.100.00 B2A2 B2A2.100.00 A2A1 A2A1.100.00 A1A0 A1A0.100.00 A0bottom0" />
    </vehicle>
    <vehicle depart="58.00" id="116">
        <route edges="right0C0 right0C0.100.00 C0B0 C0B0.100.00 B0A0 B0A0.100.00 A0A1 A0A1.100.00 A1left1" />
    </vehicle>
    <vehicle depart="58.50" id="117">
        <route edges="top2C2 top2C2.100.00 C2C1 C2C1.100.00 C1C0 C1C0.100.00 C0B0 C0B0.100.00 B0A0 B0A0.100.00 A0bottom0" />
    </vehicle>
    <vehicle depart="59.00" id="118">
        <route edges="bottom2C0 bottom2C0.100.00 C0C1 C0C1.100.00 C1C2 C1C2.100.00 C2right2" />
    </vehicle>
    <vehicle depart="59.50" id="119">
        <route edges="bottom1B0 bottom1B0.100.00 B0B1 B0B1.100.00 B1B2 B1B2.100.00 B2A2 B2A2.100.00 A2left2" />
    </vehicle>
    <vehicle depart="60.00" id="120">
        <route edges="left0A0 left0A0.100.00 A0B0 A0B0.100.00 B0C0 B0C0.100.00 C0C1 C0C1.100.00 C1C2 C1C2.100.00 C2right2" />
    </vehicle>
    <vehicle depart="60.50" id="121">
        <route edges="right2C2 right2C2.100.00 C2top2" />
    </vehicle>
    <vehicle depart="61.00" id="122">
        <route edges="bottom2C0 bottom2C0.100.00 C0B0 C0B0.100.00 B0A0 B0A0.100.00 A0left0" />
    </vehicle>
    <vehicle depart="61.50" id="123">
        <route edges="left1A1 left1A1.100.00 A1B1 A1B1.100.00 B1C1 B1C1.100.00 C1right1" />
    </vehicle>
    <vehicle depart="62.00" id="124">
        <route edges="right1C1 right1C1.100.00 C1C2 C1C2.100.00 C2top2" />
    </vehicle>
    <vehicle depart="62.50" id="125">
        <route edges="right2C2 right2C2.100.00 C2B2 C2B2.100.00 B2A2 B2A2.100.00 A2A1 A2A1.100.00 A1A0 A1A0.100.00 A0bottom0" />
    </vehicle>
    <vehicle depart="63.00" id="126">
        <route edges="left0A0 left0A0.100.00 A0A1 A0A1.100.00 A1left1" />
    </vehicle>
    <vehicle depart="63.50" id="127">
        <route edges="left0A0 left0A0.100.00 A0B0 A0B0.100.00 B0C0 B0C0.100.00 C0bottom2" />
    </vehicle>
    <vehicle depart="64.00" id="128">
        <route edges="left2A2 left2A2.100.00 A2B2 A2B2.100.00 B2C2 B2C2.100.00 C2C1 C2C1.100.00 C1right1" />
    </vehicle>
    <vehicle depart="64.50" id="129">
        <route edges="bottom0A0 bottom0A0.100.00 A0A1 A0A1.100.00 A1A2 A1A2.100.00 A2B2 A2B2.100.00 B2C2 B2C2.100.00 C2right2" />
    </vehicle>
    <vehicle depart="65.00" id="130">
        <route edges="bottom1B0 bottom1B0.100.00 B0C0 B0C0.100.00 C0right0" />
    </vehicle>
    <vehicle depart="65.50" id="131">
        <route edges="top1B2 top1B2.100.00 B2B1 B2B1.100.00 B1B0 B1B0.100.00 B0A0 B0A0.100.00 A0bottom0" />
    </vehicle>
    <vehicle depart="66.00" id="132">
        <route edges="right0C0 right0C0.100.00 C0C1 C0C1.100.00 C1C2 C1C2.100.00 C2top2" />
    </vehicle>
    <vehicle depart="66.50" id="133">
        <route edges="bottom0A0 bottom0A0.100.00 A0B0 A0B0.100.00 B0bottom1" />
    </vehicle>
    <vehicle depart="67.00" id="134">
        <route edges="left2A2 left2A2.100.00 A2top0" />
    </vehicle>
    <vehicle depart="67.50" id="135">
        <route edges="bottom2C0 bottom2C0.100.00 C0C1 C0C1.100.00 C1B1 C1B1.100.00 B1A1 B1A1.100.00 A1left1" />
    </vehicle>
    <vehicle depart="68.00" id="136">
        <route edges="left0A0 left0A0.100.00 A0A1 A0A1.100.00 A1left1" />
    </vehicle>
    <vehicle depart="68.50" id="137">
        <route edges="left0A0 left0A0.100.00 A0B0 A0B0.100.00 B0C0 B0C0.100.00 C0C1 C0C1.100.00 C1C2 C1C2.100.00 C2right2" />
    </vehicle>
    <vehicle depart="69.00" id="138">
        <route edges="top2C2 top2C2.100.00 C2B2 C2B2.100.00 B2A2 B2A2.100.00 A2left2" />
    </vehicle>
    <vehicle depart="69.50" id="139">
        <route edges="bottom0A0 bottom0A0.100.00 A0A1 A0A1.100.00 A1A2 A1A2.100.00 A2left2" />
    </vehicle>
    <vehicle depart="70.00" id="140">
        <route edges="top1B2 top1B2.100.00 B2B1 B2B1.100.00 B1A1 B1A1.100.00 A1left1" />
    </vehicle>
    <vehicle depart="70.50" id="141">
        <route edges="right1C1 right1C1.100.00 C1B1 C1B1.100.00 B1A1 B1A1.100.00 A1A0 A1A0.100.00 A0left0" />
    </vehicle>
    <vehicle depart="71.00" id="142">
        <route edges="left1A1 left1A1.100.00 A1B1 A1B1.100.00 B1B0 B1B0.100.00 B0A0 B0A0.100.00 A0A1 A0A1.100.00 A1left1" />
    </vehicle>
    <vehicle depart="71.50" id="143">
        <route edges="right1C1 right1C1.100.00 C1B1 C1B1.100.00 B1A1 B1A1.100.00 A1A2 A1A2.100.00 A2top0" />
    </vehicle>
    <vehicle depart="72.00" id="144">
        <route edges="top0A2 top0A2.100.00 A2B2 A2B2.100.00 B2top1" />
    </vehicle>
    <vehicle depart="72.50" id="145">
        <route edges="left1A1 left1A1.100.00 A1A0 A1A0.100.00 A0bottom0" />
    </vehicle>
    <vehicle depart="73.00" id="146">
        <route edges="top1B2 top1B2.100.00 B2B1 B2B1.100.00 B1B0 B1B0.100.00 B0A0 B0A0.100.00 A0bottom0" />
    </vehicle>
    <vehicle depart="73.50" id="147">
        <route edges="left2A2 left2A2.100.00 A2B2 A2B2.100.00 B2C2 B2C2.100.00 C2top2" />
    </vehicle>
    <vehicle depart="74.00" id="148">
        <route edges="top0A2 top0A2.100.00 A2B2 A2B2.100.00 B2B1 B2B1.100.00 B1A1 B1A1.100.00 A1A2 A1A2.100.00 A2top0" />
    </vehicle>
    <vehicle depart="74.50" id="149">
        <route edges="top2C2 top2C2.100.00 C2B2 C2B2.100.00 B2A2 B2A2.100.00 A2left2" />
    </vehicle>
    <vehicle depart="75.00" id="150">
        <route edges="right0C0 right0C0.100.00 C0B0 C0B0.100.00 B0B1 B0B1.100.00 B1B2 B1B2.100.00 B2top1" />
    </vehicle>
    <vehicle depart="75.50" id="151">
        <route edges="right2C2 right2C2.100.00 C2B2 C2B2.100.00 B2A2 B2A2.100.00 A2left2" />
    </vehicle>
    <vehicle depart="76.00" id="152">
        <route edges="left1A1 left1A1.100.00 A1A2 A1A2.100.00 A2left2" />
    </vehicle>
    <vehicle depart="76.50" id="153">
        <route edges="top2C2 top2C2.100.00 C2C1 C2C1.100.00 C1C0 C1C0.100.00 C0right0" />
    </vehicle>
    <vehicle depart="77.00" id="154">
        <route edges="left1A1 left1A1.100.00 A1B1 A1B1.100.00 B1C1 B1C1.100.00 C1right1" />
    </vehicle>
    <vehicle depart="77.50" id="155">
        <route edges="right1C1 right1C1.100.00 C1B1 C1B1.100.00 B1A1 B1A1.100.00 A1left1" />
    </vehicle>
    <vehicle depart="78.00" id="156">
        <route edges="left2A2 left2A2.100.00 A2A1 A2A1.100.00 A1A0 A1A0.100.00 A0left0" />
    </vehicle>
    <vehicle depart="78.50" id="157">
        <route edges="bottom2C0 bottom2C0.100.00 C0B0 C0B0.100.00 B0A0 B0A0.100.00 A0bottom0" />
    </vehicle>
    <vehicle depart="79.00" id="158">
        <route edges="bottom0A0 bottom0A0.100.00 A0B0 A0B0.100.00 B0C0 B0C0.100.00 C0bottom2" />
    </vehicle>
    <vehicle depart="79.50" id="159">
        <route edges="top0A2 top0A2.100.00 A2B2 A2B2.100.00 B2C2 B2C2.100.00 C2right2" />
    </vehicle>
    <vehicle depart="80.00" id="160">
        <route edges="bottom2C0 bottom2C0.100.00 C0C1 C0C1.100.00 C1C2 C1C2.100.00 C2top2" />
    </vehicle>
    <vehicle depart="80.50" id="161">
        <route edges="left1A1 left1A1.100.00 A1B1 A1B1.100.00 B1C1 B1C1.100.00 C1C0 C1C0.100.00 C0right0" />
    </vehicle>
    <vehicle depart="81.00" id="162">
        <route edges="right1C1 right1C1.100.00 C1B1 C1B1.100.00 B1B0 B1B0.100.00 B0bottom1" />
    </vehicle>
    <vehicle depart="81.50" id="163">
        <route edges="right2C2 right2C2.100.00 C2C1 C2C1.100.00 C1B1 C1B1.100.00 B1B2 B1B2.100.00 B2C2 B2C2.100.00 C2right2" />
    </vehicle>
    <vehicle depart="82.00" id="164">
        <route edges="right2C2 right2C2.100.00 C2B2 C2B2.100.00 B2top1" />
    </vehicle>
    <vehicle depart="82.50" id="165">
        <route edges="top1B2 top1B2.100.00 B2B1 B2B1.100.00 B1B0 B1B0.100.00 B0C0 B0C0.100.00 C0right0" />
    </vehicle>
    <vehicle depart="83.00" id="166">
        <route edges="left1A1 left1A1.100.00 A1B1 A1B1.100.00 B1C1 B1C1.100.00 C1C2 C1C2.100.00 C2top2" />
    </vehicle>
    <vehicle depart="83.50" id="167">
        <route edges="left1A1 left1A1.100.00 A1A0 A1A0.100.00 A0bottom0" />
    </vehicle>
    <vehicle depart="84.00" id="168">
        <route edges="top2C2 top2C2.100.00 C2C1 C2C1.100.00 C1B1 C1B1.100.00 B1B2 B1B2.100.00 B2C2 B2C2.100.00 C2top2" />
    </vehicle>
    <vehicle depart="84.50" id="169">
        <route edges="right0C0 right0C0.100.00 C0C1 C0C1.100.00 C1right1" />
    </vehicle>
    <vehicle depart="85.00" id="170">
        <route edges="right2C2 right2C2.100.00 C2B2 C2B2.100.00 B2A2 B2A2.100.00 A2A1 A2A1.100.00 A1A0 A1A0.100.00 A0left0" />
    </vehicle>
    <vehicle depart="85.50" id="171">
        <route edges="top0A2 top0A2.100.00 A2A1 A2A1.100.00 A1A0 A1A0.100.00 A0B0 A0B0.100.00 B0C0 B0C0.100.00 C0bottom2" />
    </vehicle>
    <vehicle depart="86.00" id="172">
        <route edges="top2C2 top2C2.100.00 C2C1 C2C1.100.00 C1C0 C1C0.100.00 C0B0 C0B0.100.00 B0bottom1" />
    </vehicle>
    <vehicle depart="86.50" id="173">
        <route edges="left0A0 left0A0.100.00 A0B0 A0B0.100.00 B0C0 B0C0.100.00 C0C1 C0C1.100.00 C1right1" />
    </vehicle>
    <vehicle depart="87.00" id="174">
        <route edges="right0C0 right0C0.100.00 C0C1 C0C1.100.00 C1C2 C1C2.100.00 C2right2" />
    </vehicle>
    <vehicle depart="87.50" id="175">
        <route edges="bottom0A0 bottom0A0.100.00 A0B0 A0B0.100.00 B0C0 B0C0.100.00 C0right0" />
    </vehicle>
    <vehicle depart="88.00" id="176">
        <route edges="top1B2 top1B2.100.00 B2B1 B2B1.100.00 B1A1 B1A1.100.00 A1left1" />
    </vehicle>
    <vehicle depart="88.50" id="177">
        <route edges="bottom1B0 bottom1B0.100.00 B0B1 B0B1.100.00 B1C1 B1C1.100.00 C1C0 C1C0.100.00 C0B0 C0B0.100.00 B0bottom1" />
    </vehicle>
    <vehicle depart="89.00" id="178">
        <route edges="right1C1 right1C1.100.00 C1C0 C1C0.100.00 C0bottom2" />
    </vehicle>
    <vehicle depart="89.50" id="179">
        <route edges="right0C0 right0C0.100.00 C0B0 C0B0.100.00 B0A0 B0A0.100.00 A0A1 A0A1.100.00 A1A2 A1A2.100.00 A2top0" />
    </vehicle>
    <vehicle depart="90.00" id="180">
        <route edges="right2C2 right2C2.100.00 C2top2" />
    </vehicle>
    <vehicle depart="90.50" id="181">
        <route edges="right0C0 right0C0.100.00 C0B0 C0B0.100.00 B0A0 B0A0.100.00 A0A1 A0A1.100.00 A1A2 A1A2.100.00 A2top0" />
    </vehicle>
    <vehicle depart="91.00" id="182">
        <route edges="top2C2 top2C2.100.00 C2C1 C2C1.100.00 C1B1 C1B1.100.00 B1A1 B1A1.100.00 A1left1" />
    </vehicle>
    <vehicle depart="91.50" id="183">
        <route edges="right0C0 right0C0.100.00 C0C1 C0C1.100.00 C1C2 C1C2.100.00 C2right2" />
    </vehicle>
    <vehicle depart="92.00" id="184">
        <route edges="top0A2 top0A2.100.00 A2A1 A2A1.100.00 A1A0 A1A0.100.00 A0B0 A0B0.100.00 B0C0 B0C0.100.00 C0right0" />
    </vehicle>
    <vehicle depart="92.50" id="185">
        <route edges="right2C2 right2C2.100.00 C2B2 C2B2.100.00 B2B1 B2B1.100.00 B1B0 B1B0.100.00 B0bottom1" />
    </vehicle>
    <vehicle depart="93.00" id="186">
        <route edges="top2C2 top2C2.100.00 C2C1 C2C1.100.00 C1C0 C1C0.100.00 C0B0 C0B0.100.00 B0A0 B0A0.100.00 A0bottom0" />
    </vehicle>
    <vehicle depart="93.50" id="187">
        <route edges="left2A2 left2A2.100.00 A2B2 A2B2.100.00 B2B1 B2B1.100.00 B1B0 B1B0.100.00 B0bottom1" />
    </vehicle>
    <vehicle depart="94.00" id="188">
        <route edges="right2C2 right2C2.100.00 C2B2 C2B2.100.00 B2A2 B2A2.100.00 A2left2" />
    </vehicle>
    <vehicle depart="94.50" id="189">
        <route edges="bottom2C0 bottom2C0.100.00 C0B0 C0B0.100.00 B0bottom1" />
    </vehicle>
    <vehicle depart="95.00" id="190">
        <route edges="right1C1 right1C1.100.00 C1B1 C1B1.100.00 B1B2 B1B2.100.00 B2top1" />
    </vehicle>
    <vehicle depart="95.50" id="191">
        <route edges="top1B2 top1B2.100.00 B2B1 B2B1.100.00 B1B0 B1B0.100.00 B0bottom1" />
    </vehicle>
    <vehicle depart="96.00" id="192">
        <route edges="bottom2C0 bottom2C0.100.00 C0B0 C0B0.100.00 B0B1 B0B1.100.00 B1C1 B1C1.100.00 C1C0 C1C0.100.00 C0bottom2" />
    </vehicle>
    <vehicle depart="96.50" id="193">
        <route edges="left1A1 left1A1.100.00 A1A0 A1A0.100.00 A0bottom0" />
    </vehicle>
    <vehicle depart="97.00" id="194">
        <route edges="left1A1 left1A1.100.00 A1A0 A1A0.100.00 A0left0" />
    </vehicle>
    <vehicle depart="97.50" id="195">
        <route edges="right1C1 right1C1.100.00 C1C2 C1C2.100.00 C2right2" />
    </vehicle>
    <vehicle depart="98.00" id="196">
        <route edges="right2C2 right2C2.100.00 C2top2" />
    </vehicle>
    <vehicle depart="98.50" id="197">