<trips>
    <trip id="1" depart="0" from="left0A0" to="C2right2"/>
    <trip id="11" depart="0" from="left0A0" to="C2right2"/>
    <trip id="111" depart="0" from="left0A0" to="C2right2"/>

</trips>