<configuration>
    <input>
        <net-file value="simple.net.xml"/>
        <route-files value="input_routes.rou.xml"/>

    </input>
</configuration>
