<?xml version="1.0" encoding="UTF-8"?>

<!-- generated on Mon 28 Dec 2020 04:11:50 PM CST by Eclipse SUMO netedit Version fc86e273
<configuration xmlns:xsi="http://www.w3.org/2001/XMLSchema-instance" xsi:noNamespaceSchemaLocation="http://sumo.dlr.de/xsd/netconvertConfiguration.xsd">

    <input>
        <sumo-net-file value="simple.net.xml"/>
    </input>

    <output>
        <output-file value="simple.net.xml"/>
    </output>

    <processing>
        <geometry.min-radius.fix.railways value="false"/>
        <geometry.max-grade.fix value="false"/>
        <offset.disable-normalization value="true"/>
        <lefthand value="false"/>
    </processing>

    <junctions>
        <no-turnarounds value="true"/>
        <junctions.corner-detail value="5"/>
        <junctions.limit-turn-speed value="-1"/>
        <rectangular-lane-cut value="false"/>
    </junctions>

    <pedestrian>
        <walkingareas value="false"/>
    </pedestrian>

    <report>
        <aggregate-warnings value="5"/>
    </report>

</configuration>
-->

<net version="1.6" junctionCornerDetail="5" xmlns:xsi="http://www.w3.org/2001/XMLSchema-instance" xsi:noNamespaceSchemaLocation="http://sumo.dlr.de/xsd/net_file.xsd">

    <location netOffset="100.00,100.00" convBoundary="-100.00,-100.00,300.00,300.00" origBoundary="-10000000000.00,-10000000000.00,10000000000.00,10000000000.00" projParameter="!"/>

    <edge id=":C_0" function="internal">
        <lane id=":C_0_0" index="0" speed="13.89" length="9.03" shape="92.00,113.60 91.65,111.15 90.60,109.40 88.85,108.35 86.40,108.00"/>
    </edge>
    <edge id=":C_1" function="internal">
        <lane id=":C_1_0" index="0" speed="13.89" length="27.20" shape="92.00,113.60 92.00,86.40"/>
        <lane id=":C_1_1" index="1" speed="13.89" length="27.20" shape="95.20,113.60 95.20,86.40"/>
    </edge>
    <edge id=":C_3" function="internal">
        <lane id=":C_3_0" index="0" speed="13.89" length="13.42" shape="98.40,113.60 99.35,106.95 102.20,102.20 103.20,101.60"/>
    </edge>
    <edge id=":C_16" function="internal">
        <lane id=":C_16_0" index="0" speed="13.89" length="11.09" shape="103.20,101.60 106.95,99.35 113.60,98.40"/>
    </edge>
    <edge id=":C_4" function="internal">
        <lane id=":C_4_0" index="0" speed="13.89" length="9.03" shape="113.60,108.00 111.15,108.35 109.40,109.40 108.35,111.15 108.00,113.60"/>
    </edge>
    <edge id=":C_5" function="internal">
        <lane id=":C_5_0" index="0" speed="13.89" length="27.20" shape="113.60,108.00 86.40,108.00"/>
        <lane id=":C_5_1" index="1" speed="13.89" length="27.20" shape="113.60,104.80 86.40,104.80"/>
    </edge>
    <edge id=":C_7" function="internal">
        <lane id=":C_7_0" index="0" speed="13.89" length="13.42" shape="113.60,101.60 106.95,100.65 102.20,97.80 101.60,96.80"/>
    </edge>
    <edge id=":C_17" function="internal">
        <lane id=":C_17_0" index="0" speed="13.89" length="11.09" shape="101.60,96.80 99.35,93.05 98.40,86.40"/>
    </edge>
    <edge id=":C_8" function="internal">
        <lane id=":C_8_0" index="0" speed="13.89" length="9.03" shape="108.00,86.40 108.35,88.85 109.40,90.60 111.15,91.65 113.60,92.00"/>
    </edge>
    <edge id=":C_9" function="internal">
        <lane id=":C_9_0" index="0" speed="13.89" length="27.20" shape="108.00,86.40 108.00,113.60"/>
        <lane id=":C_9_1" index="1" speed="13.89" length="27.20" shape="104.80,86.40 104.80,113.60"/>
    </edge>
    <edge id=":C_11" function="internal">
        <lane id=":C_11_0" index="0" speed="13.89" length="13.42" shape="101.60,86.40 100.65,93.05 97.80,97.80 96.80,98.40"/>
    </edge>
    <edge id=":C_18" function="internal">
        <lane id=":C_18_0" index="0" speed="13.89" length="11.09" shape="96.80,98.40 93.05,100.65 86.40,101.60"/>
    </edge>
    <edge id=":C_12" function="internal">
        <lane id=":C_12_0" index="0" speed="13.89" length="9.03" shape="86.40,92.00 88.85,91.65 90.60,90.60 91.65,88.85 92.00,86.40"/>
    </edge>
    <edge id=":C_13" function="internal">
        <lane id=":C_13_0" index="0" speed="13.89" length="27.20" shape="86.40,92.00 113.60,92.00"/>
        <lane id=":C_13_1" index="1" speed="13.89" length="27.20" shape="86.40,95.20 113.60,95.20"/>
    </edge>
    <edge id=":C_15" function="internal">
        <lane id=":C_15_0" index="0" speed="13.89" length="13.42" shape="86.40,98.40 93.05,99.35 97.80,102.20 98.40,103.20"/>
    </edge>
    <edge id=":C_19" function="internal">
        <lane id=":C_19_0" index="0" speed="13.89" length="11.09" shape="98.40,103.20 100.65,106.95 101.60,113.60"/>
    </edge>

    <edge id="CE" from="C" to="E" priority="2" length="800.00">
        <lane id="CE_0" index="0" speed="13.89" length="800.00" shape="113.60,92.00 300.00,92.00"/>
        <lane id="CE_1" index="1" speed="13.89" length="800.00" shape="113.60,95.20 300.00,95.20"/>
        <lane id="CE_2" index="2" speed="13.89" length="800.00" shape="113.60,98.40 300.00,98.40"/>
    </edge>
    <edge id="CN" from="C" to="N" priority="2" length="800.00">
        <lane id="CN_0" index="0" speed="13.89" length="800.00" shape="108.00,113.60 108.00,300.00"/>
        <lane id="CN_1" index="1" speed="13.89" length="800.00" shape="104.80,113.60 104.80,300.00"/>
        <lane id="CN_2" index="2" speed="13.89" length="800.00" shape="101.60,113.60 101.60,300.00"/>
    </edge>
    <edge id="CS" from="C" to="S" priority="2" length="800.00">
        <lane id="CS_0" index="0" speed="13.89" length="800.00" shape="92.00,86.40 92.00,-100.00"/>
        <lane id="CS_1" index="1" speed="13.89" length="800.00" shape="95.20,86.40 95.20,-100.00"/>
        <lane id="CS_2" index="2" speed="13.89" length="800.00" shape="98.40,86.40 98.40,-100.00"/>
    </edge>
    <edge id="CW" from="C" to="W" priority="2" length="800.00">
        <lane id="CW_0" index="0" speed="13.89" length="800.00" shape="86.40,108.00 -100.00,108.00"/>
        <lane id="CW_1" index="1" speed="13.89" length="800.00" shape="86.40,104.80 -100.00,104.80"/>
        <lane id="CW_2" index="2" speed="13.89" length="800.00" shape="86.40,101.60 -100.00,101.60"/>
    </edge>
    <edge id="EC" from="E" to="C" priority="2" length="800.00">
        <lane id="EC_0" index="0" speed="13.89" length="800.00" shape="300.00,108.00 113.60,108.00"/>
        <lane id="EC_1" index="1" speed="13.89" length="800.00" shape="300.00,104.80 113.60,104.80"/>
        <lane id="EC_2" index="2" speed="13.89" length="800.00" shape="300.00,101.60 113.60,101.60"/>
    </edge>
    <edge id="NC" from="N" to="C" priority="2" length="800.00">
        <lane id="NC_0" index="0" speed="13.89" length="800.00" shape="92.00,300.00 92.00,113.60"/>
        <lane id="NC_1" index="1" speed="13.89" length="800.00" shape="95.20,300.00 95.20,113.60"/>
        <lane id="NC_2" index="2" speed="13.89" length="800.00" shape="98.40,300.00 98.40,113.60"/>
    </edge>
    <edge id="SC" from="S" to="C" priority="2" length="800.00">
        <lane id="SC_0" index="0" speed="13.89" length="800.00" shape="108.00,-100.00 108.00,86.40"/>
        <lane id="SC_1" index="1" speed="13.89" length="800.00" shape="104.80,-100.00 104.80,86.40"/>
        <lane id="SC_2" index="2" speed="13.89" length="800.00" shape="101.60,-100.00 101.60,86.40"/>
    </edge>
    <edge id="WC" from="W" to="C" priority="2" length="800.00">
        <lane id="WC_0" index="0" speed="13.89" length="800.00" shape="-100.00,92.00 86.40,92.00"/>
        <lane id="WC_1" index="1" speed="13.89" length="800.00" shape="-100.00,95.20 86.40,95.20"/>
        <lane id="WC_2" index="2" speed="13.89" length="800.00" shape="-100.00,98.40 86.40,98.40"/>
    </edge>

    <tlLogic id="C" type="static" programID="0" offset="0">
        <phase duration="99" state="GGGrrrrrGGGrrrrr"/>
        <phase duration="99"  state="yyyrrrrryyyrrrrr"/>
        <phase duration="99" state="rrrrGGGrrrrrGGGr"/>
        <phase duration="99"  state="rrrryyyrrrrryyyr"/>
    </tlLogic>


    <!-- <tlLogic id="C" type="static" programID="0" offset="0">
        <phase duration="33" state="GGGgrrrrGGGgrrrr"/>
        <phase duration="3"  state="yyygrrrryyygrrrr"/>
        <phase duration="6"  state="rrrGrrrrrrrGrrrr"/>
        <phase duration="3"  state="rrryrrrrrrryrrrr"/>
        <phase duration="33" state="rrrrGGGgrrrrGGGg"/>
        <phase duration="3"  state="rrrryyygrrrryyyg"/>
        <phase duration="6"  state="rrrrrrrGrrrrrrrG"/>
        <phase duration="3"  state="rrrrrrryrrrrrrry"/>
    </tlLogic> -->

    <junction id="C" type="traffic_light" x="100.00" y="100.00" incLanes="NC_0 NC_1 NC_2 EC_0 EC_1 EC_2 SC_0 SC_1 SC_2 WC_0 WC_1 WC_2" intLanes=":C_0_0 :C_1_0 :C_1_1 :C_16_0 :C_4_0 :C_5_0 :C_5_1 :C_17_0 :C_8_0 :C_9_0 :C_9_1 :C_18_0 :C_12_0 :C_13_0 :C_13_1 :C_19_0" shape="90.40,113.60 109.60,113.60 110.04,111.38 110.60,110.60 111.38,110.04 112.38,109.71 113.60,109.60 113.60,90.40 111.38,89.96 110.60,89.40 110.04,88.62 109.71,87.62 109.60,86.40 90.40,86.40 89.96,88.62 89.40,89.40 88.62,89.96 87.62,90.29 86.40,90.40 86.40,109.60 88.62,110.04 89.40,110.60 89.96,111.38 90.29,112.38">
        <request index="0"  response="0000000000000000" foes="0000000001100000" cont="0"/>
        <request index="1"  response="1000000000000000" foes="1111100001100000" cont="0"/>
        <request index="2"  response="1000000000000000" foes="1111100001100000" cont="0"/>
        <request index="3"  response="1000011010000000" foes="1000011011100000" cont="1"/>
        <request index="4"  response="0000011000000000" foes="0000011000000000" cont="0"/>
        <request index="5"  response="0000011000001111" foes="1000011000001111" cont="0"/>
        <request index="6"  response="0000011000001111" foes="1000011000001111" cont="0"/>
        <request index="7"  response="0110111000001000" foes="0110111000001000" cont="1"/>
        <request index="8"  response="0000000000000000" foes="0110000000000000" cont="0"/>
        <request index="9"  response="0000000010000000" foes="0110000011111000" cont="0"/>
        <request index="10" response="0000000010000000" foes="0110000011111000" cont="0"/>
        <request index="11" response="1000000010000110" foes="1110000010000110" cont="1"/>
        <request index="12" response="0000000000000110" foes="0000000000000110" cont="0"/>
        <request index="13" response="0000111100000110" foes="0000111110000110" cont="0"/>
        <request index="14" response="0000111100000110" foes="0000111110000110" cont="0"/>
        <request index="15" response="0000100001101110" foes="0000100001101110" cont="1"/>
    </junction>
    <junction id="E" type="dead_end" x="300.00" y="100.00" incLanes="CE_0 CE_1 CE_2" intLanes="" shape="300.00,100.00 300.00,90.40 300.00,100.00"/>
    <junction id="N" type="dead_end" x="100.00" y="300.00" incLanes="CN_0 CN_1 CN_2" intLanes="" shape="100.00,300.00 109.60,300.00 100.00,300.00"/>
    <junction id="S" type="dead_end" x="100.00" y="-100.00" incLanes="CS_0 CS_1 CS_2" intLanes="" shape="100.00,-100.00 90.40,-100.00 100.00,-100.00"/>
    <junction id="W" type="dead_end" x="-100.00" y="100.00" incLanes="CW_0 CW_1 CW_2" intLanes="" shape="-100.00,100.00 -100.00,109.60 -100.00,100.00"/>

    <junction id=":C_16_0" type="internal" x="103.20" y="101.60" incLanes=":C_3_0 SC_0 SC_1" intLanes=":C_5_0 :C_5_1 :C_7_0 :C_8_0 :C_9_0 :C_9_1 :C_13_0 :C_13_1 :C_15_0"/>
    <junction id=":C_17_0" type="internal" x="101.60" y="96.80" incLanes=":C_7_0 WC_0 WC_1" intLanes=":C_1_0 :C_1_1 :C_3_0 :C_9_0 :C_9_1 :C_11_0 :C_12_0 :C_13_0 :C_13_1"/>
    <junction id=":C_18_0" type="internal" x="96.80" y="98.40" incLanes=":C_11_0 NC_0 NC_1" intLanes=":C_0_0 :C_1_0 :C_1_1 :C_5_0 :C_5_1 :C_7_0 :C_13_0 :C_13_1 :C_15_0"/>
    <junction id=":C_19_0" type="internal" x="98.40" y="103.20" incLanes=":C_15_0 EC_0 EC_1" intLanes=":C_1_0 :C_1_1 :C_3_0 :C_4_0 :C_5_0 :C_5_1 :C_9_0 :C_9_1 :C_11_0"/>

    <connection from="EC" to="CN" fromLane="0" toLane="0" via=":C_4_0" tl="C" linkIndex="4" dir="r" state="o"/>
    <connection from="EC" to="CW" fromLane="0" toLane="0" via=":C_5_0" tl="C" linkIndex="5" dir="s" state="o"/>
    <connection from="EC" to="CW" fromLane="1" toLane="1" via=":C_5_1" tl="C" linkIndex="6" dir="s" state="o"/>
    <connection from="EC" to="CS" fromLane="2" toLane="2" via=":C_7_0" tl="C" linkIndex="7" dir="l" state="o"/>
    <connection from="NC" to="CW" fromLane="0" toLane="0" via=":C_0_0" tl="C" linkIndex="0" dir="r" state="O"/>
    <connection from="NC" to="CS" fromLane="0" toLane="0" via=":C_1_0" tl="C" linkIndex="1" dir="s" state="O"/>
    <connection from="NC" to="CS" fromLane="1" toLane="1" via=":C_1_1" tl="C" linkIndex="2" dir="s" state="O"/>
    <connection from="NC" to="CE" fromLane="2" toLane="2" via=":C_3_0" tl="C" linkIndex="3" dir="l" state="o"/>
    <connection from="SC" to="CE" fromLane="0" toLane="0" via=":C_8_0" tl="C" linkIndex="8" dir="r" state="O"/>
    <connection from="SC" to="CN" fromLane="0" toLane="0" via=":C_9_0" tl="C" linkIndex="9" dir="s" state="O"/>
    <connection from="SC" to="CN" fromLane="1" toLane="1" via=":C_9_1" tl="C" linkIndex="10" dir="s" state="O"/>
    <connection from="SC" to="CW" fromLane="2" toLane="2" via=":C_11_0" tl="C" linkIndex="11" dir="l" state="o"/>
    <connection from="WC" to="CS" fromLane="0" toLane="0" via=":C_12_0" tl="C" linkIndex="12" dir="r" state="o"/>
    <connection from="WC" to="CE" fromLane="0" toLane="0" via=":C_13_0" tl="C" linkIndex="13" dir="s" state="o"/>
    <connection from="WC" to="CE" fromLane="1" toLane="1" via=":C_13_1" tl="C" linkIndex="14" dir="s" state="o"/>
    <connection from="WC" to="CN" fromLane="2" toLane="2" via=":C_15_0" tl="C" linkIndex="15" dir="l" state="o"/>

    <connection from=":C_0" to="CW" fromLane="0" toLane="0" dir="r" state="M"/>
    <connection from=":C_1" to="CS" fromLane="0" toLane="0" dir="s" state="M"/>
    <connection from=":C_1" to="CS" fromLane="1" toLane="1" dir="s" state="M"/>
    <connection from=":C_3" to="CE" fromLane="0" toLane="2" via=":C_16_0" dir="l" state="m"/>
    <connection from=":C_16" to="CE" fromLane="0" toLane="2" dir="l" state="M"/>
    <connection from=":C_4" to="CN" fromLane="0" toLane="0" dir="r" state="M"/>
    <connection from=":C_5" to="CW" fromLane="0" toLane="0" dir="s" state="M"/>
    <connection from=":C_5" to="CW" fromLane="1" toLane="1" dir="s" state="M"/>
    <connection from=":C_7" to="CS" fromLane="0" toLane="2" via=":C_17_0" dir="l" state="m"/>
    <connection from=":C_17" to="CS" fromLane="0" toLane="2" dir="l" state="M"/>
    <connection from=":C_8" to="CE" fromLane="0" toLane="0" dir="r" state="M"/>
    <connection from=":C_9" to="CN" fromLane="0" toLane="0" dir="s" state="M"/>
    <connection from=":C_9" to="CN" fromLane="1" toLane="1" dir="s" state="M"/>
    <connection from=":C_11" to="CW" fromLane="0" toLane="2" via=":C_18_0" dir="l" state="m"/>
    <connection from=":C_18" to="CW" fromLane="0" toLane="2" dir="l" state="M"/>
    <connection from=":C_12" to="CS" fromLane="0" toLane="0" dir="r" state="M"/>
    <connection from=":C_13" to="CE" fromLane="0" toLane="0" dir="s" state="M"/>
    <connection from=":C_13" to="CE" fromLane="1" toLane="1" dir="s" state="M"/>
    <connection from=":C_15" to="CN" fromLane="0" toLane="2" via=":C_19_0" dir="l" state="m"/>
    <connection from=":C_19" to="CN" fromLane="0" toLane="2" dir="l" state="M"/>

</net>
