<?xml version="1.0" encoding="UTF-8"?>

<!-- generated on Sun 30 Aug 2020 09:54:22 PM CDT by Eclipse SUMO netedit Version 104d8d5c
<configuration xmlns:xsi="http://www.w3.org/2001/XMLSchema-instance" xsi:noNamespaceSchemaLocation="http://sumo.dlr.de/xsd/netconvertConfiguration.xsd">

    <input>
        <sumo-net-file value="MySUMOFile.net.xml"/>
    </input>

    <output>
        <output-file value="MySUMOFile.net.xml"/>
    </output>

    <processing>
        <geometry.min-radius.fix.railways value="false"/>
        <geometry.max-grade.fix value="false"/>
        <offset.disable-normalization value="true"/>
        <lefthand value="false"/>
    </processing>

    <junctions>
        <no-turnarounds value="true"/>
        <junctions.corner-detail value="5"/>
        <junctions.limit-turn-speed value="5.5"/>
        <rectangular-lane-cut value="false"/>
    </junctions>

    <pedestrian>
        <walkingareas value="false"/>
    </pedestrian>

    <report>
        <aggregate-warnings value="5"/>
    </report>

</configuration>
-->

<net version="1.6" junctionCornerDetail="5" limitTurnSpeed="5.50" xmlns:xsi="http://www.w3.org/2001/XMLSchema-instance" xsi:noNamespaceSchemaLocation="http://sumo.dlr.de/xsd/net_file.xsd">

    <location netOffset="0.00,0.00" convBoundary="0.00,0.00,1200.00,1200.00" origBoundary="0.00,0.00,1200.00,1200.00" projParameter="!"/>

    <edge id=":A0_0" function="internal">
        <lane id=":A0_0_0" index="0" speed="6.08" length="7.74" shape="-1.60,3.20 -1.30,1.10 -0.40,-0.40 1.10,-1.30 3.20,-1.60"/>
    </edge>
    <edge id=":A0_1" function="internal">
        <lane id=":A0_1_0" index="0" speed="3.90" length="2.58" shape="3.20,1.60 2.50,1.70 2.00,2.00 1.70,2.50 1.60,3.20"/>
    </edge>
    <edge id=":A1_0" function="internal">
        <lane id=":A1_0_0" index="0" speed="13.89" length="17.60" shape="-1.60,407.20 -1.60,389.60"/>
    </edge>
    <edge id=":A1_1" function="internal">
        <lane id=":A1_1_0" index="0" speed="8.00" length="5.93" shape="-1.60,407.20 -1.05,403.35 -0.00,401.60"/>
    </edge>
    <edge id=":A1_6" function="internal">
        <lane id=":A1_6_0" index="0" speed="8.00" length="8.26" shape="-0.00,401.60 0.60,400.60 3.35,398.95 7.20,398.40"/>
    </edge>
    <edge id=":A1_2" function="internal">
        <lane id=":A1_2_0" index="0" speed="6.51" length="9.03" shape="7.20,401.60 4.75,401.95 3.00,403.00 1.95,404.75 1.60,407.20"/>
    </edge>
    <edge id=":A1_3" function="internal">
        <lane id=":A1_3_0" index="0" speed="8.67" length="16.85" shape="7.20,401.60 3.35,400.85 0.60,398.60 -1.05,394.85 -1.60,389.60"/>
    </edge>
    <edge id=":A1_4" function="internal">
        <lane id=":A1_4_0" index="0" speed="6.51" length="9.03" shape="1.60,389.60 1.95,392.05 3.00,393.80 4.75,394.85 7.20,395.20"/>
    </edge>
    <edge id=":A1_5" function="internal">
        <lane id=":A1_5_0" index="0" speed="13.89" length="17.60" shape="1.60,389.60 1.60,407.20"/>
    </edge>
    <edge id=":A2_0" function="internal">
        <lane id=":A2_0_0" index="0" speed="13.89" length="17.60" shape="-1.60,807.20 -1.60,789.60"/>
    </edge>
    <edge id=":A2_1" function="internal">
        <lane id=":A2_1_0" index="0" speed="8.00" length="5.93" shape="-1.60,807.20 -1.05,803.35 0.00,801.60"/>
    </edge>
    <edge id=":A2_6" function="internal">
        <lane id=":A2_6_0" index="0" speed="8.00" length="8.26" shape="0.00,801.60 0.60,800.60 3.35,798.95 7.20,798.40"/>
    </edge>
    <edge id=":A2_2" function="internal">
        <lane id=":A2_2_0" index="0" speed="6.51" length="9.03" shape="7.20,801.60 4.75,801.95 3.00,803.00 1.95,804.75 1.60,807.20"/>
    </edge>
    <edge id=":A2_3" function="internal">
        <lane id=":A2_3_0" index="0" speed="8.67" length="16.85" shape="7.20,801.60 3.35,800.85 0.60,798.60 -1.05,794.85 -1.60,789.60"/>
    </edge>
    <edge id=":A2_4" function="internal">
        <lane id=":A2_4_0" index="0" speed="6.51" length="9.03" shape="1.60,789.60 1.95,792.05 3.00,793.80 4.75,794.85 7.20,795.20"/>
    </edge>
    <edge id=":A2_5" function="internal">
        <lane id=":A2_5_0" index="0" speed="13.89" length="17.60" shape="1.60,789.60 1.60,807.20"/>
    </edge>
    <edge id=":A3_0" function="internal">
        <lane id=":A3_0_0" index="0" speed="6.08" length="7.74" shape="3.20,1201.60 1.10,1201.30 -0.40,1200.40 -1.30,1198.90 -1.60,1196.80"/>
    </edge>
    <edge id=":A3_1" function="internal">
        <lane id=":A3_1_0" index="0" speed="3.90" length="2.58" shape="1.60,1196.80 1.70,1197.50 2.00,1198.00 2.50,1198.30 3.20,1198.40"/>
    </edge>
    <edge id=":B0_0" function="internal">
        <lane id=":B0_0_0" index="0" speed="6.51" length="9.03" shape="398.40,7.20 398.05,4.75 397.00,3.00 395.25,1.95 392.80,1.60"/>
    </edge>
    <edge id=":B0_1" function="internal">
        <lane id=":B0_1_0" index="0" speed="8.67" length="16.85" shape="398.40,7.20 399.15,3.35 401.40,0.60 405.15,-1.05 410.40,-1.60"/>
    </edge>
    <edge id=":B0_2" function="internal">
        <lane id=":B0_2_0" index="0" speed="6.51" length="9.03" shape="410.40,1.60 407.95,1.95 406.20,3.00 405.15,4.75 404.80,7.20"/>
    </edge>
    <edge id=":B0_3" function="internal">
        <lane id=":B0_3_0" index="0" speed="13.89" length="17.60" shape="410.40,1.60 392.80,1.60"/>
    </edge>
    <edge id=":B0_4" function="internal">
        <lane id=":B0_4_0" index="0" speed="13.89" length="17.60" shape="392.80,-1.60 410.40,-1.60"/>
    </edge>
    <edge id=":B0_5" function="internal">
        <lane id=":B0_5_0" index="0" speed="8.00" length="5.93" shape="392.80,-1.60 396.65,-1.05 398.40,-0.00"/>
    </edge>
    <edge id=":B0_6" function="internal">
        <lane id=":B0_6_0" index="0" speed="8.00" length="8.26" shape="398.40,-0.00 399.40,0.60 401.05,3.35 401.60,7.20"/>
    </edge>
    <edge id=":B1_0" function="internal">
        <lane id=":B1_0_0" index="0" speed="7.33" length="11.73" shape="395.20,410.40 394.85,406.55 393.80,403.80 392.05,402.15 389.60,401.60"/>
    </edge>
    <edge id=":B1_1" function="internal">
        <lane id=":B1_1_0" index="0" speed="13.89" length="21.09" shape="395.20,410.40 395.70,403.63 396.80,398.12 397.90,393.55 398.40,389.60"/>
    </edge>
    <edge id=":B1_2" function="internal">
        <lane id=":B1_2_0" index="0" speed="9.26" length="11.78" shape="398.40,410.40 399.15,405.15 401.40,401.40 403.20,400.32"/>
    </edge>
    <edge id=":B1_12" function="internal">
        <lane id=":B1_12_0" index="0" speed="9.26" length="7.58" shape="403.20,400.32 405.15,399.15 410.40,398.40"/>
    </edge>
    <edge id=":B1_3" function="internal">
        <lane id=":B1_3_0" index="0" speed="6.51" length="9.03" shape="410.40,404.80 407.95,405.15 406.20,406.20 405.15,407.95 404.80,410.40"/>
    </edge>
    <edge id=":B1_4" function="internal">
        <lane id=":B1_4_0" index="0" speed="13.89" length="21.09" shape="410.40,404.80 403.63,404.30 398.12,403.20 393.55,402.10 389.60,401.60"/>
    </edge>
    <edge id=":B1_5" function="internal">
        <lane id=":B1_5_0" index="0" speed="9.26" length="11.78" shape="410.40,401.60 405.15,400.85 401.40,398.60 400.32,396.80"/>
    </edge>
    <edge id=":B1_13" function="internal">
        <lane id=":B1_13_0" index="0" speed="9.26" length="7.58" shape="400.32,396.80 399.15,394.85 398.40,389.60"/>
    </edge>
    <edge id=":B1_6" function="internal">
        <lane id=":B1_6_0" index="0" speed="6.51" length="9.03" shape="404.80,389.60 405.15,392.05 406.20,393.80 407.95,394.85 410.40,395.20"/>
    </edge>
    <edge id=":B1_7" function="internal">
        <lane id=":B1_7_0" index="0" speed="13.89" length="20.80" shape="404.80,389.60 404.80,410.40"/>
    </edge>
    <edge id=":B1_8" function="internal">
        <lane id=":B1_8_0" index="0" speed="9.26" length="10.03" shape="401.60,389.60 400.85,394.85 398.60,398.60 398.30,398.78"/>
    </edge>
    <edge id=":B1_14" function="internal">
        <lane id=":B1_14_0" index="0" speed="9.26" length="9.33" shape="398.30,398.78 394.85,400.85 389.60,401.60"/>
    </edge>
    <edge id=":B1_9" function="internal">
        <lane id=":B1_9_0" index="0" speed="7.33" length="11.73" shape="389.60,395.20 393.45,394.85 396.20,393.80 397.85,392.05 398.40,389.60"/>
    </edge>
    <edge id=":B1_10" function="internal">
        <lane id=":B1_10_0" index="0" speed="13.89" length="20.80" shape="389.60,395.20 410.40,395.20"/>
    </edge>
    <edge id=":B1_11" function="internal">
        <lane id=":B1_11_0" index="0" speed="9.26" length="10.03" shape="389.60,398.40 394.85,399.15 398.60,401.40 398.78,401.70"/>
    </edge>
    <edge id=":B1_15" function="internal">
        <lane id=":B1_15_0" index="0" speed="9.26" length="9.33" shape="398.78,401.70 400.85,405.15 401.60,410.40"/>
    </edge>
    <edge id=":B2_0" function="internal">
        <lane id=":B2_0_0" index="0" speed="7.33" length="11.73" shape="395.20,810.40 394.85,806.55 393.80,803.80 392.05,802.15 389.60,801.60"/>
    </edge>
    <edge id=":B2_1" function="internal">
        <lane id=":B2_1_0" index="0" speed="13.89" length="20.80" shape="395.20,810.40 395.20,789.60"/>
    </edge>
    <edge id=":B2_2" function="internal">
        <lane id=":B2_2_0" index="0" speed="9.26" length="10.03" shape="398.40,810.40 399.15,805.15 401.40,801.40 401.70,801.22"/>
    </edge>
    <edge id=":B2_12" function="internal">
        <lane id=":B2_12_0" index="0" speed="9.26" length="9.33" shape="401.70,801.22 405.15,799.15 410.40,798.40"/>
    </edge>
    <edge id=":B2_3" function="internal">
        <lane id=":B2_3_0" index="0" speed="7.33" length="11.73" shape="410.40,804.80 406.55,805.15 403.80,806.20 402.15,807.95 401.60,810.40"/>
    </edge>
    <edge id=":B2_4" function="internal">
        <lane id=":B2_4_0" index="0" speed="13.89" length="21.09" shape="410.40,804.80 403.63,804.30 398.12,803.20 393.55,802.10 389.60,801.60"/>
    </edge>
    <edge id=":B2_5" function="internal">
        <lane id=":B2_5_0" index="0" speed="9.26" length="11.78" shape="410.40,801.60 405.15,800.85 401.40,798.60 400.32,796.80"/>
    </edge>
    <edge id=":B2_13" function="internal">
        <lane id=":B2_13_0" index="0" speed="9.26" length="7.58" shape="400.32,796.80 399.15,794.85 398.40,789.60"/>
    </edge>
    <edge id=":B2_6" function="internal">
        <lane id=":B2_6_0" index="0" speed="6.51" length="9.03" shape="404.80,789.60 405.15,792.05 406.20,793.80 407.95,794.85 410.40,795.20"/>
    </edge>
    <edge id=":B2_7" function="internal">
        <lane id=":B2_7_0" index="0" speed="13.89" length="21.09" shape="404.80,789.60 404.30,796.37 403.20,801.88 402.10,806.45 401.60,810.40"/>
    </edge>
    <edge id=":B2_8" function="internal">
        <lane id=":B2_8_0" index="0" speed="9.26" length="11.78" shape="401.60,789.60 400.85,794.85 398.60,798.60 396.80,799.68"/>
    </edge>
    <edge id=":B2_14" function="internal">
        <lane id=":B2_14_0" index="0" speed="9.26" length="7.58" shape="396.80,799.68 394.85,800.85 389.60,801.60"/>
    </edge>
    <edge id=":B2_9" function="internal">
        <lane id=":B2_9_0" index="0" speed="6.51" length="9.03" shape="389.60,795.20 392.05,794.85 393.80,793.80 394.85,792.05 395.20,789.60"/>
    </edge>
    <edge id=":B2_10" function="internal">
        <lane id=":B2_10_0" index="0" speed="13.89" length="20.80" shape="389.60,795.20 410.40,795.20"/>
    </edge>
    <edge id=":B2_11" function="internal">
        <lane id=":B2_11_0" index="0" speed="9.26" length="10.03" shape="389.60,798.40 394.85,799.15 398.60,801.40 398.78,801.70"/>
    </edge>
    <edge id=":B2_15" function="internal">
        <lane id=":B2_15_0" index="0" speed="9.26" length="9.33" shape="398.78,801.70 400.85,805.15 401.60,810.40"/>
    </edge>
    <edge id=":B3_0" function="internal">
        <lane id=":B3_0_0" index="0" speed="13.89" length="17.60" shape="407.20,1201.60 389.60,1201.60"/>
    </edge>
    <edge id=":B3_1" function="internal">
        <lane id=":B3_1_0" index="0" speed="8.00" length="5.93" shape="407.20,1201.60 403.35,1201.05 401.60,1200.00"/>
    </edge>
    <edge id=":B3_6" function="internal">
        <lane id=":B3_6_0" index="0" speed="8.00" length="8.26" shape="401.60,1200.00 400.60,1199.40 398.95,1196.65 398.40,1192.80"/>
    </edge>
    <edge id=":B3_2" function="internal">
        <lane id=":B3_2_0" index="0" speed="6.51" length="9.03" shape="401.60,1192.80 401.95,1195.25 403.00,1197.00 404.75,1198.05 407.20,1198.40"/>
    </edge>
    <edge id=":B3_3" function="internal">
        <lane id=":B3_3_0" index="0" speed="8.67" length="16.85" shape="401.60,1192.80 400.85,1196.65 398.60,1199.40 394.85,1201.05 389.60,1201.60"/>
    </edge>
    <edge id=":B3_4" function="internal">
        <lane id=":B3_4_0" index="0" speed="6.51" length="9.03" shape="389.60,1198.40 392.05,1198.05 393.80,1197.00 394.85,1195.25 395.20,1192.80"/>
    </edge>
    <edge id=":B3_5" function="internal">
        <lane id=":B3_5_0" index="0" speed="13.89" length="17.60" shape="389.60,1198.40 407.20,1198.40"/>
    </edge>
    <edge id=":C0_0" function="internal">
        <lane id=":C0_0_0" index="0" speed="6.51" length="9.03" shape="798.40,7.20 798.05,4.75 797.00,3.00 795.25,1.95 792.80,1.60"/>
    </edge>
    <edge id=":C0_1" function="internal">
        <lane id=":C0_1_0" index="0" speed="8.67" length="16.85" shape="798.40,7.20 799.15,3.35 801.40,0.60 805.15,-1.05 810.40,-1.60"/>
    </edge>
    <edge id=":C0_2" function="internal">
        <lane id=":C0_2_0" index="0" speed="6.51" length="9.03" shape="810.40,1.60 807.95,1.95 806.20,3.00 805.15,4.75 804.80,7.20"/>
    </edge>
    <edge id=":C0_3" function="internal">
        <lane id=":C0_3_0" index="0" speed="13.89" length="17.60" shape="810.40,1.60 792.80,1.60"/>
    </edge>
    <edge id=":C0_4" function="internal">
        <lane id=":C0_4_0" index="0" speed="13.89" length="17.60" shape="792.80,-1.60 810.40,-1.60"/>
    </edge>
    <edge id=":C0_5" function="internal">
        <lane id=":C0_5_0" index="0" speed="8.00" length="5.93" shape="792.80,-1.60 796.65,-1.05 798.40,0.00"/>
    </edge>
    <edge id=":C0_6" function="internal">
        <lane id=":C0_6_0" index="0" speed="8.00" length="8.26" shape="798.40,0.00 799.40,0.60 801.05,3.35 801.60,7.20"/>
    </edge>
    <edge id=":C1_0" function="internal">
        <lane id=":C1_0_0" index="0" speed="6.51" length="9.03" shape="795.20,410.40 794.85,407.95 793.80,406.20 792.05,405.15 789.60,404.80"/>
    </edge>
    <edge id=":C1_1" function="internal">
        <lane id=":C1_1_0" index="0" speed="13.89" length="21.09" shape="795.20,410.40 795.70,403.63 796.80,398.12 797.90,393.55 798.40,389.60"/>
    </edge>
    <edge id=":C1_2" function="internal">
        <lane id=":C1_2_0" index="0" speed="9.26" length="11.78" shape="798.40,410.40 799.15,405.15 801.40,401.40 803.20,400.32"/>
    </edge>
    <edge id=":C1_12" function="internal">
        <lane id=":C1_12_0" index="0" speed="9.26" length="7.58" shape="803.20,400.32 805.15,399.15 810.40,398.40"/>
    </edge>
    <edge id=":C1_3" function="internal">
        <lane id=":C1_3_0" index="0" speed="6.51" length="9.03" shape="810.40,404.80 807.95,405.15 806.20,406.20 805.15,407.95 804.80,410.40"/>
    </edge>
    <edge id=":C1_4" function="internal">
        <lane id=":C1_4_0" index="0" speed="13.89" length="20.80" shape="810.40,404.80 789.60,404.80"/>
    </edge>
    <edge id=":C1_5" function="internal">
        <lane id=":C1_5_0" index="0" speed="9.26" length="10.03" shape="810.40,401.60 805.15,400.85 801.40,398.60 801.22,398.30"/>
    </edge>
    <edge id=":C1_13" function="internal">
        <lane id=":C1_13_0" index="0" speed="9.26" length="9.33" shape="801.22,398.30 799.15,394.85 798.40,389.60"/>
    </edge>
    <edge id=":C1_6" function="internal">
        <lane id=":C1_6_0" index="0" speed="7.33" length="11.73" shape="804.80,389.60 805.15,393.45 806.20,396.20 807.95,397.85 810.40,398.40"/>
    </edge>
    <edge id=":C1_7" function="internal">
        <lane id=":C1_7_0" index="0" speed="13.89" length="20.80" shape="804.80,389.60 804.80,410.40"/>
    </edge>
    <edge id=":C1_8" function="internal">
        <lane id=":C1_8_0" index="0" speed="9.26" length="10.03" shape="801.60,389.60 800.85,394.85 798.60,398.60 798.30,398.78"/>
    </edge>
    <edge id=":C1_14" function="internal">
        <lane id=":C1_14_0" index="0" speed="9.26" length="9.33" shape="798.30,398.78 794.85,400.85 789.60,401.60"/>
    </edge>
    <edge id=":C1_9" function="internal">
        <lane id=":C1_9_0" index="0" speed="7.33" length="11.73" shape="789.60,395.20 793.45,394.85 796.20,393.80 797.85,392.05 798.40,389.60"/>
    </edge>
    <edge id=":C1_10" function="internal">
        <lane id=":C1_10_0" index="0" speed="13.89" length="21.09" shape="789.60,395.20 796.37,395.70 801.88,396.80 806.45,397.90 810.40,398.40"/>
    </edge>
    <edge id=":C1_11" function="internal">
        <lane id=":C1_11_0" index="0" speed="9.26" length="11.78" shape="789.60,398.40 794.85,399.15 798.60,401.40 799.68,403.20"/>
    </edge>
    <edge id=":C1_15" function="internal">
        <lane id=":C1_15_0" index="0" speed="9.26" length="7.58" shape="799.68,403.20 800.85,405.15 801.60,410.40"/>
    </edge>
    <edge id=":C2_0" function="internal">
        <lane id=":C2_0_0" index="0" speed="6.51" length="9.03" shape="795.20,810.40 794.85,807.95 793.80,806.20 792.05,805.15 789.60,804.80"/>
    </edge>
    <edge id=":C2_1" function="internal">
        <lane id=":C2_1_0" index="0" speed="13.89" length="20.80" shape="795.20,810.40 795.20,789.60"/>
    </edge>
    <edge id=":C2_2" function="internal">
        <lane id=":C2_2_0" index="0" speed="9.26" length="10.03" shape="798.40,810.40 799.15,805.15 801.40,801.40 801.70,801.22"/>
    </edge>
    <edge id=":C2_12" function="internal">
        <lane id=":C2_12_0" index="0" speed="9.26" length="9.33" shape="801.70,801.22 805.15,799.15 810.40,798.40"/>
    </edge>
    <edge id=":C2_3" function="internal">
        <lane id=":C2_3_0" index="0" speed="7.33" length="11.73" shape="810.40,804.80 806.55,805.15 803.80,806.20 802.15,807.95 801.60,810.40"/>
    </edge>
    <edge id=":C2_4" function="internal">
        <lane id=":C2_4_0" index="0" speed="13.89" length="20.80" shape="810.40,804.80 789.60,804.80"/>
    </edge>
    <edge id=":C2_5" function="internal">
        <lane id=":C2_5_0" index="0" speed="9.26" length="10.03" shape="810.40,801.60 805.15,800.85 801.40,798.60 801.22,798.30"/>
    </edge>
    <edge id=":C2_13" function="internal">
        <lane id=":C2_13_0" index="0" speed="9.26" length="9.33" shape="801.22,798.30 799.15,794.85 798.40,789.60"/>
    </edge>
    <edge id=":C2_6" function="internal">
        <lane id=":C2_6_0" index="0" speed="7.33" length="11.73" shape="804.80,789.60 805.15,793.45 806.20,796.20 807.95,797.85 810.40,798.40"/>
    </edge>
    <edge id=":C2_7" function="internal">
        <lane id=":C2_7_0" index="0" speed="13.89" length="21.09" shape="804.80,789.60 804.30,796.37 803.20,801.88 802.10,806.45 801.60,810.40"/>
    </edge>
    <edge id=":C2_8" function="internal">
        <lane id=":C2_8_0" index="0" speed="9.26" length="11.78" shape="801.60,789.60 800.85,794.85 798.60,798.60 796.80,799.68"/>
    </edge>
    <edge id=":C2_14" function="internal">
        <lane id=":C2_14_0" index="0" speed="9.26" length="7.58" shape="796.80,799.68 794.85,800.85 789.60,801.60"/>
    </edge>
    <edge id=":C2_9" function="internal">
        <lane id=":C2_9_0" index="0" speed="6.51" length="9.03" shape="789.60,795.20 792.05,794.85 793.80,793.80 794.85,792.05 795.20,789.60"/>
    </edge>
    <edge id=":C2_10" function="internal">
        <lane id=":C2_10_0" index="0" speed="13.89" length="21.09" shape="789.60,795.20 796.37,795.70 801.88,796.80 806.45,797.90 810.40,798.40"/>
    </edge>
    <edge id=":C2_11" function="internal">
        <lane id=":C2_11_0" index="0" speed="9.26" length="11.78" shape="789.60,798.40 794.85,799.15 798.60,801.40 799.68,803.20"/>
    </edge>
    <edge id=":C2_15" function="internal">
        <lane id=":C2_15_0" index="0" speed="9.26" length="7.58" shape="799.68,803.20 800.85,805.15 801.60,810.40"/>
    </edge>
    <edge id=":C3_0" function="internal">
        <lane id=":C3_0_0" index="0" speed="13.89" length="17.60" shape="807.20,1201.60 789.60,1201.60"/>
    </edge>
    <edge id=":C3_1" function="internal">
        <lane id=":C3_1_0" index="0" speed="8.00" length="5.93" shape="807.20,1201.60 803.35,1201.05 801.60,1200.00"/>
    </edge>
    <edge id=":C3_6" function="internal">
        <lane id=":C3_6_0" index="0" speed="8.00" length="8.26" shape="801.60,1200.00 800.60,1199.40 798.95,1196.65 798.40,1192.80"/>
    </edge>
    <edge id=":C3_2" function="internal">
        <lane id=":C3_2_0" index="0" speed="6.51" length="9.03" shape="801.60,1192.80 801.95,1195.25 803.00,1197.00 804.75,1198.05 807.20,1198.40"/>
    </edge>
    <edge id=":C3_3" function="internal">
        <lane id=":C3_3_0" index="0" speed="8.67" length="16.85" shape="801.60,1192.80 800.85,1196.65 798.60,1199.40 794.85,1201.05 789.60,1201.60"/>
    </edge>
    <edge id=":C3_4" function="internal">
        <lane id=":C3_4_0" index="0" speed="6.51" length="9.03" shape="789.60,1198.40 792.05,1198.05 793.80,1197.00 794.85,1195.25 795.20,1192.80"/>
    </edge>
    <edge id=":C3_5" function="internal">
        <lane id=":C3_5_0" index="0" speed="13.89" length="17.60" shape="789.60,1198.40 807.20,1198.40"/>
    </edge>
    <edge id=":D0_0" function="internal">
        <lane id=":D0_0_0" index="0" speed="3.90" length="2.58" shape="1198.40,3.20 1198.30,2.50 1198.00,2.00 1197.50,1.70 1196.80,1.60"/>
    </edge>
    <edge id=":D0_1" function="internal">
        <lane id=":D0_1_0" index="0" speed="6.08" length="7.74" shape="1196.80,-1.60 1198.90,-1.30 1200.40,-0.40 1201.30,1.10 1201.60,3.20"/>
    </edge>
    <edge id=":D1_0" function="internal">
        <lane id=":D1_0_0" index="0" speed="6.51" length="9.03" shape="1198.40,410.40 1198.05,407.95 1197.00,406.20 1195.25,405.15 1192.80,404.80"/>
    </edge>
    <edge id=":D1_1" function="internal">
        <lane id=":D1_1_0" index="0" speed="13.89" length="17.60" shape="1198.40,410.40 1198.40,392.80"/>
    </edge>
    <edge id=":D1_2" function="internal">
        <lane id=":D1_2_0" index="0" speed="13.89" length="17.60" shape="1201.60,392.80 1201.60,410.40"/>
    </edge>
    <edge id=":D1_3" function="internal">
        <lane id=":D1_3_0" index="0" speed="8.00" length="5.93" shape="1201.60,392.80 1201.05,396.65 1200.00,398.40"/>
    </edge>
    <edge id=":D1_6" function="internal">
        <lane id=":D1_6_0" index="0" speed="8.00" length="8.26" shape="1200.00,398.40 1199.40,399.40 1196.65,401.05 1192.80,401.60"/>
    </edge>
    <edge id=":D1_4" function="internal">
        <lane id=":D1_4_0" index="0" speed="6.51" length="9.03" shape="1192.80,398.40 1195.25,398.05 1197.00,397.00 1198.05,395.25 1198.40,392.80"/>
    </edge>
    <edge id=":D1_5" function="internal">
        <lane id=":D1_5_0" index="0" speed="8.67" length="16.85" shape="1192.80,398.40 1196.65,399.15 1199.40,401.40 1201.05,405.15 1201.60,410.40"/>
    </edge>
    <edge id=":D2_0" function="internal">
        <lane id=":D2_0_0" index="0" speed="6.51" length="9.03" shape="1198.40,810.40 1198.05,807.95 1197.00,806.20 1195.25,805.15 1192.80,804.80"/>
    </edge>
    <edge id=":D2_1" function="internal">
        <lane id=":D2_1_0" index="0" speed="13.89" length="17.60" shape="1198.40,810.40 1198.40,792.80"/>
    </edge>
    <edge id=":D2_2" function="internal">
        <lane id=":D2_2_0" index="0" speed="13.89" length="17.60" shape="1201.60,792.80 1201.60,810.40"/>
    </edge>
    <edge id=":D2_3" function="internal">
        <lane id=":D2_3_0" index="0" speed="8.00" length="5.93" shape="1201.60,792.80 1201.05,796.65 1200.00,798.40"/>
    </edge>
    <edge id=":D2_6" function="internal">
        <lane id=":D2_6_0" index="0" speed="8.00" length="8.26" shape="1200.00,798.40 1199.40,799.40 1196.65,801.05 1192.80,801.60"/>
    </edge>
    <edge id=":D2_4" function="internal">
        <lane id=":D2_4_0" index="0" speed="6.51" length="9.03" shape="1192.80,798.40 1195.25,798.05 1197.00,797.00 1198.05,795.25 1198.40,792.80"/>
    </edge>
    <edge id=":D2_5" function="internal">
        <lane id=":D2_5_0" index="0" speed="8.67" length="16.85" shape="1192.80,798.40 1196.65,799.15 1199.40,801.40 1201.05,805.15 1201.60,810.40"/>
    </edge>
    <edge id=":D3_0" function="internal">
        <lane id=":D3_0_0" index="0" speed="6.08" length="7.74" shape="1201.60,1196.80 1201.30,1198.90 1200.40,1200.40 1198.90,1201.30 1196.80,1201.60"/>
    </edge>
    <edge id=":D3_1" function="internal">
        <lane id=":D3_1_0" index="0" speed="3.90" length="2.58" shape="1196.80,1198.40 1197.50,1198.30 1198.00,1198.00 1198.30,1197.50 1198.40,1196.80"/>
    </edge>

    <edge id="A0A1" from="A0" to="A1" priority="-1">
        <lane id="A0A1_0" index="0" speed="13.89" length="386.40" shape="1.60,3.20 1.60,389.60"/>
    </edge>
    <edge id="A0B0" from="A0" to="B0" priority="-1">
        <lane id="A0B0_0" index="0" speed="13.89" length="389.60" shape="3.20,-1.60 392.80,-1.60"/>
    </edge>
    <edge id="A1A0" from="A1" to="A0" priority="-1">
        <lane id="A1A0_0" index="0" speed="13.89" length="386.40" shape="-1.60,389.60 -1.60,3.20"/>
    </edge>
    <edge id="A1A2" from="A1" to="A2" priority="-1">
        <lane id="A1A2_0" index="0" speed="13.89" length="382.40" shape="1.60,407.20 1.60,789.60"/>
    </edge>
    <edge id="A1B1" from="A1" to="B1" priority="-1">
        <lane id="A1B1_0" index="0" speed="13.89" length="382.40" shape="7.20,395.20 389.60,395.20"/>
        <lane id="A1B1_1" index="1" speed="13.89" length="382.40" shape="7.20,398.40 389.60,398.40"/>
    </edge>
    <edge id="A2A1" from="A2" to="A1" priority="-1">
        <lane id="A2A1_0" index="0" speed="13.89" length="382.40" shape="-1.60,789.60 -1.60,407.20"/>
    </edge>
    <edge id="A2A3" from="A2" to="A3" priority="-1">
        <lane id="A2A3_0" index="0" speed="13.89" length="389.60" shape="1.60,807.20 1.60,1196.80"/>
    </edge>
    <edge id="A2B2" from="A2" to="B2" priority="-1">
        <lane id="A2B2_0" index="0" speed="13.89" length="382.40" shape="7.20,795.20 389.60,795.20"/>
        <lane id="A2B2_1" index="1" speed="13.89" length="382.40" shape="7.20,798.40 389.60,798.40"/>
    </edge>
    <edge id="A3A2" from="A3" to="A2" priority="-1">
        <lane id="A3A2_0" index="0" speed="13.89" length="389.60" shape="-1.60,1196.80 -1.60,807.20"/>
    </edge>
    <edge id="A3B3" from="A3" to="B3" priority="-1">
        <lane id="A3B3_0" index="0" speed="13.89" length="386.40" shape="3.20,1198.40 389.60,1198.40"/>
    </edge>
    <edge id="B0A0" from="B0" to="A0" priority="-1">
        <lane id="B0A0_0" index="0" speed="13.89" length="389.60" shape="392.80,1.60 3.20,1.60"/>
    </edge>
    <edge id="B0B1" from="B0" to="B1" priority="-1">
        <lane id="B0B1_0" index="0" speed="13.89" length="382.40" shape="404.80,7.20 404.80,389.60"/>
        <lane id="B0B1_1" index="1" speed="13.89" length="382.40" shape="401.60,7.20 401.60,389.60"/>
    </edge>
    <edge id="B0C0" from="B0" to="C0" priority="-1">
        <lane id="B0C0_0" index="0" speed="13.89" length="382.40" shape="410.40,-1.60 792.80,-1.60"/>
    </edge>
    <edge id="B1A1" from="B1" to="A1" priority="-1">
        <lane id="B1A1_0" index="0" speed="13.89" length="382.40" shape="389.60,401.60 7.20,401.60"/>
    </edge>
    <edge id="B1B0" from="B1" to="B0" priority="-1">
        <lane id="B1B0_0" index="0" speed="13.89" length="382.40" shape="398.40,389.60 398.40,7.20"/>
    </edge>
    <edge id="B1B2" from="B1" to="B2" priority="-1">
        <lane id="B1B2_0" index="0" speed="13.89" length="379.20" shape="404.80,410.40 404.80,789.60"/>
        <lane id="B1B2_1" index="1" speed="13.89" length="379.20" shape="401.60,410.40 401.60,789.60"/>
    </edge>
    <edge id="B1C1" from="B1" to="C1" priority="-1">
        <lane id="B1C1_0" index="0" speed="13.89" length="379.20" shape="410.40,395.20 789.60,395.20"/>
        <lane id="B1C1_1" index="1" speed="13.89" length="379.20" shape="410.40,398.40 789.60,398.40"/>
    </edge>
    <edge id="B2A2" from="B2" to="A2" priority="-1">
        <lane id="B2A2_0" index="0" speed="13.89" length="382.40" shape="389.60,801.60 7.20,801.60"/>
    </edge>
    <edge id="B2B1" from="B2" to="B1" priority="-1">
        <lane id="B2B1_0" index="0" speed="13.89" length="379.20" shape="395.20,789.60 395.20,410.40"/>
        <lane id="B2B1_1" index="1" speed="13.89" length="379.20" shape="398.40,789.60 398.40,410.40"/>
    </edge>
    <edge id="B2B3" from="B2" to="B3" priority="-1">
        <lane id="B2B3_0" index="0" speed="13.89" length="382.40" shape="401.60,810.40 401.60,1192.80"/>
    </edge>
    <edge id="B2C2" from="B2" to="C2" priority="-1">
        <lane id="B2C2_0" index="0" speed="13.89" length="379.20" shape="410.40,795.20 789.60,795.20"/>
        <lane id="B2C2_1" index="1" speed="13.89" length="379.20" shape="410.40,798.40 789.60,798.40"/>
    </edge>
    <edge id="B3A3" from="B3" to="A3" priority="-1">
        <lane id="B3A3_0" index="0" speed="13.89" length="386.40" shape="389.60,1201.60 3.20,1201.60"/>
    </edge>
    <edge id="B3B2" from="B3" to="B2" priority="-1">
        <lane id="B3B2_0" index="0" speed="13.89" length="382.40" shape="395.20,1192.80 395.20,810.40"/>
        <lane id="B3B2_1" index="1" speed="13.89" length="382.40" shape="398.40,1192.80 398.40,810.40"/>
    </edge>
    <edge id="B3C3" from="B3" to="C3" priority="-1">
        <lane id="B3C3_0" index="0" speed="13.89" length="382.40" shape="407.20,1198.40 789.60,1198.40"/>
    </edge>
    <edge id="C0B0" from="C0" to="B0" priority="-1">
        <lane id="C0B0_0" index="0" speed="13.89" length="382.40" shape="792.80,1.60 410.40,1.60"/>
    </edge>
    <edge id="C0C1" from="C0" to="C1" priority="-1">
        <lane id="C0C1_0" index="0" speed="13.89" length="382.40" shape="804.80,7.20 804.80,389.60"/>