<configuration>
    <input>
        <net-file value="simple.net.xml"/>
        <route-files value="input_routes.rou.xml"/>
        <!-- <additional-files value="traciDemo.add.xml"/> -->
        <tls.actuated.show-detectors value="true"/>
    </input>

    <time>
      <begin value="0"/>
    </time>

    <processing>
        <time-to-teleport value="-1"/>
    </processing>
</configuration>
