<?xml version="1.0" encoding="UTF-8"?>

<!-- generated on 2021-07-15 12:23:45 by Eclipse SUMO netgenerate Version 1.9.2
<configuration xmlns:xsi="http://www.w3.org/2001/XMLSchema-instance" xsi:noNamespaceSchemaLocation="http://sumo.dlr.de/xsd/netgenerateConfiguration.xsd">

    <grid_network>
        <grid value="true"/>
        <grid.number value="4"/>
        <grid.length value="200"/>
        <grid.attach-length value="200"/>
    </grid_network>

    <output>
        <output-file value="net.net.xml"/>
    </output>

    <processing>
        <turn-lanes value="1"/>
        <turn-lanes.length value="100"/>
    </processing>

    <building_defaults>
        <default.lanenumber value="2"/>
        <default.speed value="20"/>
        <default-junction-type value="traffic_light"/>
    </building_defaults>

    <tls_building>
        <tls.yellow.time value="3"/>
        <tls.left-green.time value="12"/>
    </tls_building>

    <junctions>
        <no-turnarounds value="true"/>
    </junctions>

</configuration>
-->

<net version="1.9" junctionCornerDetail="5" limitTurnSpeed="5.50" xmlns:xsi="http://www.w3.org/2001/XMLSchema-instance" xsi:noNamespaceSchemaLocation="http://sumo.dlr.de/xsd/net_file.xsd">

    <location netOffset="0.00,0.00" convBoundary="0.00,0.00,1000.00,1000.00" origBoundary="0.00,0.00,1000.00,1000.00" projParameter="!"/>

    <edge id=":A0_0" function="internal">
        <lane id=":A0_0_0" index="0" speed="6.51" length="9.03" shape="193.60,212.00 193.25,209.55 192.20,207.80 190.45,206.75 188.00,206.40"/>
    </edge>
    <edge id=":A0_1" function="internal">
        <lane id=":A0_1_0" index="0" speed="20.00" length="24.00" shape="193.60,212.00 193.60,188.00"/>
        <lane id=":A0_1_1" index="1" speed="20.00" length="24.00" shape="196.80,212.00 196.80,188.00"/>
    </edge>
    <edge id=":A0_3" function="internal">
        <lane id=":A0_3_0" index="0" speed="9.84" length="8.68" shape="200.00,212.00 200.75,205.35 201.60,203.56"/>
    </edge>
    <edge id=":A0_16" function="internal">
        <lane id=":A0_16_0" index="0" speed="9.84" length="13.32" shape="201.60,203.56 203.00,200.60 206.75,197.75 212.00,196.80"/>
    </edge>
    <edge id=":A0_4" function="internal">
        <lane id=":A0_4_0" index="0" speed="6.51" length="9.03" shape="212.00,206.40 209.55,206.75 207.80,207.80 206.75,209.55 206.40,212.00"/>
    </edge>
    <edge id=":A0_5" function="internal">
        <lane id=":A0_5_0" index="0" speed="20.00" length="24.00" shape="212.00,206.40 188.00,206.40"/>
        <lane id=":A0_5_1" index="1" speed="20.00" length="24.00" shape="212.00,203.20 188.00,203.20"/>
    </edge>
    <edge id=":A0_7" function="internal">
        <lane id=":A0_7_0" index="0" speed="9.84" length="8.68" shape="212.00,200.00 205.35,199.25 203.56,198.40"/>
    </edge>
    <edge id=":A0_17" function="internal">
        <lane id=":A0_17_0" index="0" speed="9.84" length="13.32" shape="203.56,198.40 200.60,197.00 197.75,193.25 196.80,188.00"/>
    </edge>
    <edge id=":A0_8" function="internal">
        <lane id=":A0_8_0" index="0" speed="6.51" length="9.03" shape="206.40,188.00 206.75,190.45 207.80,192.20 209.55,193.25 212.00,193.60"/>
    </edge>
    <edge id=":A0_9" function="internal">
        <lane id=":A0_9_0" index="0" speed="20.00" length="24.00" shape="206.40,188.00 206.40,212.00"/>
        <lane id=":A0_9_1" index="1" speed="20.00" length="24.00" shape="203.20,188.00 203.20,212.00"/>
    </edge>
    <edge id=":A0_11" function="internal">
        <lane id=":A0_11_0" index="0" speed="9.84" length="8.68" shape="200.00,188.00 199.25,194.65 198.40,196.44"/>
    </edge>
    <edge id=":A0_18" function="internal">
        <lane id=":A0_18_0" index="0" speed="9.84" length="13.32" shape="198.40,196.44 197.00,199.40 193.25,202.25 188.00,203.20"/>
    </edge>
    <edge id=":A0_12" function="internal">
        <lane id=":A0_12_0" index="0" speed="6.51" length="9.03" shape="188.00,193.60 190.45,193.25 192.20,192.20 193.25,190.45 193.60,188.00"/>
    </edge>
    <edge id=":A0_13" function="internal">
        <lane id=":A0_13_0" index="0" speed="20.00" length="24.00" shape="188.00,193.60 212.00,193.60"/>
        <lane id=":A0_13_1" index="1" speed="20.00" length="24.00" shape="188.00,196.80 212.00,196.80"/>
    </edge>
    <edge id=":A0_15" function="internal">
        <lane id=":A0_15_0" index="0" speed="9.84" length="8.68" shape="188.00,200.00 194.65,200.75 196.44,201.60"/>
    </edge>
    <edge id=":A0_19" function="internal">
        <lane id=":A0_19_0" index="0" speed="9.84" length="13.32" shape="196.44,201.60 199.40,203.00 202.25,206.75 203.20,212.00"/>
    </edge>
    <edge id=":A0A1.100.00_0" function="internal">
        <lane id=":A0A1.100.00_0_0" index="0" speed="20.00" length="8.27" shape="206.40,296.00 206.40,304.00"/>
        <lane id=":A0A1.100.00_0_1" index="1" speed="20.00" length="8.27" shape="203.20,296.00 203.20,304.00"/>
        <lane id=":A0A1.100.00_0_2" index="2" speed="20.00" length="8.27" shape="203.20,296.00 202.70,298.46 201.60,300.00 200.50,301.54 200.00,304.00"/>
    </edge>
    <edge id=":A0B0.100.00_0" function="internal">
        <lane id=":A0B0.100.00_0_0" index="0" speed="20.00" length="8.27" shape="296.00,193.60 304.00,193.60"/>
        <lane id=":A0B0.100.00_0_1" index="1" speed="20.00" length="8.27" shape="296.00,196.80 304.00,196.80"/>
        <lane id=":A0B0.100.00_0_2" index="2" speed="20.00" length="8.27" shape="296.00,196.80 298.46,197.30 300.00,198.40 301.54,199.50 304.00,200.00"/>
    </edge>
    <edge id=":A1_0" function="internal">
        <lane id=":A1_0_0" index="0" speed="6.51" length="9.03" shape="193.60,412.00 193.25,409.55 192.20,407.80 190.45,406.75 188.00,406.40"/>
    </edge>
    <edge id=":A1_1" function="internal">
        <lane id=":A1_1_0" index="0" speed="20.00" length="24.00" shape="193.60,412.00 193.60,388.00"/>
        <lane id=":A1_1_1" index="1" speed="20.00" length="24.00" shape="196.80,412.00 196.80,388.00"/>
    </edge>
    <edge id=":A1_3" function="internal">
        <lane id=":A1_3_0" index="0" speed="9.84" length="8.68" shape="200.00,412.00 200.75,405.35 201.60,403.56"/>
    </edge>
    <edge id=":A1_16" function="internal">
        <lane id=":A1_16_0" index="0" speed="9.84" length="13.32" shape="201.60,403.56 203.00,400.60 206.75,397.75 212.00,396.80"/>
    </edge>
    <edge id=":A1_4" function="internal">
        <lane id=":A1_4_0" index="0" speed="6.51" length="9.03" shape="212.00,406.40 209.55,406.75 207.80,407.80 206.75,409.55 206.40,412.00"/>
    </edge>
    <edge id=":A1_5" function="internal">
        <lane id=":A1_5_0" index="0" speed="20.00" length="24.00" shape="212.00,406.40 188.00,406.40"/>
        <lane id=":A1_5_1" index="1" speed="20.00" length="24.00" shape="212.00,403.20 188.00,403.20"/>
    </edge>
    <edge id=":A1_7" function="internal">
        <lane id=":A1_7_0" index="0" speed="9.84" length="8.68" shape="212.00,400.00 205.35,399.25 203.56,398.40"/>
    </edge>
    <edge id=":A1_17" function="internal">
        <lane id=":A1_17_0" index="0" speed="9.84" length="13.32" shape="203.56,398.40 200.60,397.00 197.75,393.25 196.80,388.00"/>
    </edge>
    <edge id=":A1_8" function="internal">
        <lane id=":A1_8_0" index="0" speed="6.51" length="9.03" shape="206.40,388.00 206.75,390.45 207.80,392.20 209.55,393.25 212.00,393.60"/>
    </edge>
    <edge id=":A1_9" function="internal">
        <lane id=":A1_9_0" index="0" speed="20.00" length="24.00" shape="206.40,388.00 206.40,412.00"/>
        <lane id=":A1_9_1" index="1" speed="20.00" length="24.00" shape="203.20,388.00 203.20,412.00"/>
    </edge>
    <edge id=":A1_11" function="internal">
        <lane id=":A1_11_0" index="0" speed="9.84" length="8.68" shape="200.00,388.00 199.25,394.65 198.40,396.44"/>
    </edge>
    <edge id=":A1_18" function="internal">
        <lane id=":A1_18_0" index="0" speed="9.84" length="13.32" shape="198.40,396.44 197.00,399.40 193.25,402.25 188.00,403.20"/>
    </edge>
    <edge id=":A1_12" function="internal">
        <lane id=":A1_12_0" index="0" speed="6.51" length="9.03" shape="188.00,393.60 190.45,393.25 192.20,392.20 193.25,390.45 193.60,388.00"/>
    </edge>
    <edge id=":A1_13" function="internal">
        <lane id=":A1_13_0" index="0" speed="20.00" length="24.00" shape="188.00,393.60 212.00,393.60"/>
        <lane id=":A1_13_1" index="1" speed="20.00" length="24.00" shape="188.00,396.80 212.00,396.80"/>
    </edge>
    <edge id=":A1_15" function="internal">
        <lane id=":A1_15_0" index="0" speed="9.84" length="8.68" shape="188.00,400.00 194.65,400.75 196.44,401.60"/>
    </edge>
    <edge id=":A1_19" function="internal">
        <lane id=":A1_19_0" index="0" speed="9.84" length="13.32" shape="196.44,401.60 199.40,403.00 202.25,406.75 203.20,412.00"/>
    </edge>
    <edge id=":A1A0.100.00_0" function="internal">
        <lane id=":A1A0.100.00_0_0" index="0" speed="20.00" length="8.27" shape="193.60,304.00 193.60,296.00"/>
        <lane id=":A1A0.100.00_0_1" index="1" speed="20.00" length="8.27" shape="196.80,304.00 196.80,296.00"/>
        <lane id=":A1A0.100.00_0_2" index="2" speed="20.00" length="8.27" shape="196.80,304.00 197.30,301.54 198.40,300.00 199.50,298.46 200.00,296.00"/>
    </edge>
    <edge id=":A1A2.100.00_0" function="internal">
        <lane id=":A1A2.100.00_0_0" index="0" speed="20.00" length="8.27" shape="206.40,496.00 206.40,504.00"/>
        <lane id=":A1A2.100.00_0_1" index="1" speed="20.00" length="8.27" shape="203.20,496.00 203.20,504.00"/>
        <lane id=":A1A2.100.00_0_2" index="2" speed="20.00" length="8.27" shape="203.20,496.00 202.70,498.46 201.60,500.00 200.50,501.54 200.00,504.00"/>
    </edge>
    <edge id=":A1B1.100.00_0" function="internal">
        <lane id=":A1B1.100.00_0_0" index="0" speed="20.00" length="8.27" shape="296.00,393.60 304.00,393.60"/>
        <lane id=":A1B1.100.00_0_1" index="1" speed="20.00" length="8.27" shape="296.00,396.80 304.00,396.80"/>
        <lane id=":A1B1.100.00_0_2" index="2" speed="20.00" length="8.27" shape="296.00,396.80 298.46,397.30 300.00,398.40 301.54,399.50 304.00,400.00"/>
    </edge>
    <edge id=":A2_0" function="internal">
        <lane id=":A2_0_0" index="0" speed="6.51" length="9.03" shape="193.60,612.00 193.25,609.55 192.20,607.80 190.45,606.75 188.00,606.40"/>
    </edge>
    <edge id=":A2_1" function="internal">
        <lane id=":A2_1_0" index="0" speed="20.00" length="24.00" shape="193.60,612.00 193.60,588.00"/>
        <lane id=":A2_1_1" index="1" speed="20.00" length="24.00" shape="196.80,612.00 196.80,588.00"/>
    </edge>
    <edge id=":A2_3" function="internal">
        <lane id=":A2_3_0" index="0" speed="9.84" length="8.68" shape="200.00,612.00 200.75,605.35 201.60,603.56"/>
    </edge>
    <edge id=":A2_16" function="internal">
        <lane id=":A2_16_0" index="0" speed="9.84" length="13.32" shape="201.60,603.56 203.00,600.60 206.75,597.75 212.00,596.80"/>
    </edge>
    <edge id=":A2_4" function="internal">
        <lane id=":A2_4_0" index="0" speed="6.51" length="9.03" shape="212.00,606.40 209.55,606.75 207.80,607.80 206.75,609.55 206.40,612.00"/>
    </edge>
    <edge id=":A2_5" function="internal">
        <lane id=":A2_5_0" index="0" speed="20.00" length="24.00" shape="212.00,606.40 188.00,606.40"/>
        <lane id=":A2_5_1" index="1" speed="20.00" length="24.00" shape="212.00,603.20 188.00,603.20"/>
    </edge>
    <edge id=":A2_7" function="internal">
        <lane id=":A2_7_0" index="0" speed="9.84" length="8.68" shape="212.00,600.00 205.35,599.25 203.56,598.40"/>
    </edge>
    <edge id=":A2_17" function="internal">
        <lane id=":A2_17_0" index="0" speed="9.84" length="13.32" shape="203.56,598.40 200.60,597.00 197.75,593.25 196.80,588.00"/>
    </edge>
    <edge id=":A2_8" function="internal">
        <lane id=":A2_8_0" index="0" speed="6.51" length="9.03" shape="206.40,588.00 206.75,590.45 207.80,592.20 209.55,593.25 212.00,593.60"/>
    </edge>
    <edge id=":A2_9" function="internal">
        <lane id=":A2_9_0" index="0" speed="20.00" length="24.00" shape="206.40,588.00 206.40,612.00"/>
        <lane id=":A2_9_1" index="1" speed="20.00" length="24.00" shape="203.20,588.00 203.20,612.00"/>
    </edge>
    <edge id=":A2_11" function="internal">
        <lane id=":A2_11_0" index="0" speed="9.84" length="8.68" shape="200.00,588.00 199.25,594.65 198.40,596.44"/>
    </edge>
    <edge id=":A2_18" function="internal">
        <lane id=":A2_18_0" index="0" speed="9.84" length="13.32" shape="198.40,596.44 197.00,599.40 193.25,602.25 188.00,603.20"/>
    </edge>
    <edge id=":A2_12" function="internal">
        <lane id=":A2_12_0" index="0" speed="6.51" length="9.03" shape="188.00,593.60 190.45,593.25 192.20,592.20 193.25,590.45 193.60,588.00"/>
    </edge>
    <edge id=":A2_13" function="internal">
        <lane id=":A2_13_0" index="0" speed="20.00" length="24.00" shape="188.00,593.60 212.00,593.60"/>
        <lane id=":A2_13_1" index="1" speed="20.00" length="24.00" shape="188.00,596.80 212.00,596.80"/>
    </edge>
    <edge id=":A2_15" function="internal">
        <lane id=":A2_15_0" index="0" speed="9.84" length="8.68" shape="188.00,600.00 194.65,600.75 196.44,601.60"/>
    </edge>
    <edge id=":A2_19" function="internal">
        <lane id=":A2_19_0" index="0" speed="9.84" length="13.32" shape="196.44,601.60 199.40,603.00 202.25,606.75 203.20,612.00"/>
    </edge>
    <edge id=":A2A1.100.00_0" function="internal">
        <lane id=":A2A1.100.00_0_0" index="0" speed="20.00" length="8.27" shape="193.60,504.00 193.60,496.00"/>
        <lane id=":A2A1.100.00_0_1" index="1" speed="20.00" length="8.27" shape="196.80,504.00 196.80,496.00"/>
        <lane id=":A2A1.100.00_0_2" index="2" speed="20.00" length="8.27" shape="196.80,504.00 197.30,501.54 198.40,500.00 199.50,498.46 200.00,496.00"/>
    </edge>
    <edge id=":A2A3.100.00_0" function="internal">
        <lane id=":A2A3.100.00_0_0" index="0" speed="20.00" length="8.27" shape="206.40,696.00 206.40,704.00"/>
        <lane id=":A2A3.100.00_0_1" index="1" speed="20.00" length="8.27" shape="203.20,696.00 203.20,704.00"/>
        <lane id=":A2A3.100.00_0_2" index="2" speed="20.00" length="8.27" shape="203.20,696.00 202.70,698.46 201.60,700.00 200.50,701.54 200.00,704.00"/>
    </edge>
    <edge id=":A2B2.100.00_0" function="internal">
        <lane id=":A2B2.100.00_0_0" index="0" speed="20.00" length="8.27" shape="296.00,593.60 304.00,593.60"/>
        <lane id=":A2B2.100.00_0_1" index="1" speed="20.00" length="8.27" shape="296.00,596.80 304.00,596.80"/>
        <lane id=":A2B2.100.00_0_2" index="2" speed="20.00" length="8.27" shape="296.00,596.80 298.46,597.30 300.00,598.40 301.54,599.50 304.00,600.00"/>
    </edge>
    <edge id=":A3_0" function="internal">
        <lane id=":A3_0_0" index="0" speed="6.51" length="9.03" shape="193.60,812.00 193.25,809.55 192.20,807.80 190.45,806.75 188.00,806.40"/>
    </edge>
    <edge id=":A3_1" function="internal">
        <lane id=":A3_1_0" index="0" speed="20.00" length="24.00" shape="193.60,812.00 193.60,788.00"/>
        <lane id=":A3_1_1" index="1" speed="20.00" length="24.00" shape="196.80,812.00 196.80,788.00"/>
    </edge>
    <edge id=":A3_3" function="internal">
        <lane id=":A3_3_0" index="0" speed="9.84" length="8.68" shape="200.00,812.00 200.75,805.35 201.60,803.56"/>
    </edge>
    <edge id=":A3_16" function="internal">
        <lane id=":A3_16_0" index="0" speed="9.84" length="13.32" shape="201.60,803.56 203.00,800.60 206.75,797.75 212.00,796.80"/>
    </edge>
    <edge id=":A3_4" function="internal">
        <lane id=":A3_4_0" index="0" speed="6.51" length="9.03" shape="212.00,806.40 209.55,806.75 207.80,807.80 206.75,809.55 206.40,812.00"/>
    </edge>
    <edge id=":A3_5" function="internal">
        <lane id=":A3_5_0" index="0" speed="20.00" length="24.00" shape="212.00,806.40 188.00,806.40"/>
        <lane id=":A3_5_1" index="1" speed="20.00" length="24.00" shape="212.00,803.20 188.00,803.20"/>
    </edge>
    <edge id=":A3_7" function="internal">
        <lane id=":A3_7_0" index="0" speed="9.84" length="8.68" shape="212.00,800.00 205.35,799.25 203.56,798.40"/>
    </edge>
    <edge id=":A3_17" function="internal">
        <lane id=":A3_17_0" index="0" speed="9.84" length="13.32" shape="203.56,798.40 200.60,797.00 197.75,793.25 196.80,788.00"/>
    </edge>
    <edge id=":A3_8" function="internal">
        <lane id=":A3_8_0" index="0" speed="6.51" length="9.03" shape="206.40,788.00 206.75,790.45 207.80,792.20 209.55,793.25 212.00,793.60"/>
    </edge>
    <edge id=":A3_9" function="internal">
        <lane id=":A3_9_0" index="0" speed="20.00" length="24.00" shape="206.40,788.00 206.40,812.00"/>
        <lane id=":A3_9_1" index="1" speed="20.00" length="24.00" shape="203.20,788.00 203.20,812.00"/>
    </edge>
    <edge id=":A3_11" function="internal">
        <lane id=":A3_11_0" index="0" speed="9.84" length="8.68" shape="200.00,788.00 199.25,794.65 198.40,796.44"/>
    </edge>
    <edge id=":A3_18" function="internal">
        <lane id=":A3_18_0" index="0" speed="9.84" length="13.32" shape="198.40,796.44 197.00,799.40 193.25,802.25 188.00,803.20"/>
    </edge>
    <edge id=":A3_12" function="internal">
        <lane id=":A3_12_0" index="0" speed="6.51" length="9.03" shape="188.00,793.60 190.45,793.25 192.20,792.20 193.25,790.45 193.60,788.00"/>
    </edge>
    <edge id=":A3_13" function="internal">
        <lane id=":A3_13_0" index="0" speed="20.00" length="24.00" shape="188.00,793.60 212.00,793.60"/>
        <lane id=":A3_13_1" index="1" speed="20.00" length="24.00" shape="188.00,796.80 212.00,796.80"/>
    </edge>
    <edge id=":A3_15" function="internal">
        <lane id=":A3_15_0" index="0" speed="9.84" length="8.68" shape="188.00,800.00 194.65,800.75 196.44,801.60"/>
    </edge>
    <edge id=":A3_19" function="internal">
        <lane id=":A3_19_0" index="0" speed="9.84" length="13.32" shape="196.44,801.60 199.40,803.00 202.25,806.75 203.20,812.00"/>
    </edge>
    <edge id=":A3A2.100.00_0" function="internal">
        <lane id=":A3A2.100.00_0_0" index="0" speed="20.00" length="8.27" shape="193.60,704.00 193.60,696.00"/>
        <lane id=":A3A2.100.00_0_1" index="1" speed="20.00" length="8.27" shape="196.80,704.00 196.80,696.00"/>
        <lane id=":A3A2.100.00_0_2" index="2" speed="20.00" length="8.27" shape="196.80,704.00 197.30,701.54 198.40,700.00 199.50,698.46 200.00,696.00"/>
    </edge>
    <edge id=":A3B3.100.00_0" function="internal">
        <lane id=":A3B3.100.00_0_0" index="0" speed="20.00" length="8.27" shape="296.00,793.60 304.00,793.60"/>
        <lane id=":A3B3.100.00_0_1" index="1" speed="20.00" length="8.27" shape="296.00,796.80 304.00,796.80"/>
        <lane id=":A3B3.100.00_0_2" index="2" speed="20.00" length="8.27" shape="296.00,796.80 298.46,797.30 300.00,798.40 301.54,799.50 304.00,800.00"/>
    </edge>
    <edge id=":B0_0" function="internal">
        <lane id=":B0_0_0" index="0" speed="6.51" length="9.03" shape="393.60,212.00 393.25,209.55 392.20,207.80 390.45,206.75 388.00,206.40"/>
    </edge>
    <edge id=":B0_1" function="internal">
        <lane id=":B0_1_0" index="0" speed="20.00" length="24.00" shape="393.60,212.00 393.60,188.00"/>
        <lane id=":B0_1_1" index="1" speed="20.00" length="24.00" shape="396.80,212.00 396.80,188.00"/>
    </edge>
    <edge id=":B0_3" function="internal">
        <lane id=":B0_3_0" index="0" speed="9.84" length="8.68" shape="400.00,212.00 400.75,205.35 401.60,203.56"/>
    </edge>
    <edge id=":B0_16" function="internal">
        <lane id=":B0_16_0" index="0" speed="9.84" length="13.32" shape="401.60,203.56 403.00,200.60 406.75,197.75 412.00,196.80"/>
    </edge>
    <edge id=":B0_4" function="internal">
        <lane id=":B0_4_0" index="0" speed="6.51" length="9.03" shape="412.00,206.40 409.55,206.75 407.80,207.80 406.75,209.55 406.40,212.00"/>
    </edge>
    <edge id=":B0_5" function="internal">
        <lane id=":B0_5_0" index="0" speed="20.00" length="24.00" shape="412.00,206.40 388.00,206.40"/>
        <lane id=":B0_5_1" index="1" speed="20.00" length="24.00" shape="412.00,203.20 388.00,203.20"/>
    </edge>
    <edge id=":B0_7" function="internal">
        <lane id=":B0_7_0" index="0" speed="9.84" length="8.68" shape="412.00,200.00 405.35,199.25 403.56,198.40"/>
    </edge>
    <edge id=":B0_17" function="internal">
        <lane id=":B0_17_0" index="0" speed="9.84" length="13.32" shape="403.56,198.40 400.60,197.00 397.75,193.25 396.80,188.00"/>
    </edge>
    <edge id=":B0_8" function="internal">
        <lane id=":B0_8_0" index="0" speed="6.51" length="9.03" shape="406.40,188.00 406.75,190.45 407.80,192.20 409.55,193.25 412.00,193.60"/>
    </edge>
    <edge id=":B0_9" function="internal">
        <lane id=":B0_9_0" index="0" speed="20.00" length="24.00" shape="406.40,188.00 406.40,212.00"/>
        <lane id=":B0_9_1" index="1" speed="20.00" length="24.00" shape="403.20,188.00 403.20,212.00"/>
    </edge>
    <edge id=":B0_11" function="internal">
        <lane id=":B0_11_0" index="0" speed="9.84" length="8.68" shape="400.00,188.00 399.25,194.65 398.40,196.44"/>
    </edge>
    <edge id=":B0_18" function="internal">
        <lane id=":B0_18_0" index="0" speed="9.84" length="13.32" shape="398.40,196.44 397.00,199.40 393.25,202.25 388.00,203.20"/>
    </edge>
    <edge id=":B0_12" function="internal">
        <lane id=":B0_12_0" index="0" speed="6.51" length="9.03" shape="388.00,193.60 390.45,193.25 392.20,192.20 393.25,190.45 393.60,188.00"/>
    </edge>
    <edge id=":B0_13" function="internal">
        <lane id=":B0_13_0" index="0" speed="20.00" length="24.00" shape="388.00,193.60 412.00,193.60"/>
        <lane id=":B0_13_1" index="1" speed="20.00" length="24.00" shape="388.00,196.80 412.00,196.80"/>
    </edge>
    <edge id=":B0_15" function="internal">
        <lane id=":B0_15_0" index="0" speed="9.84" length="8.68" shape="388.00,200.00 394.65,200.75 396.44,201.60"/>
    </edge>
    <edge id=":B0_19" function="internal">
        <lane id=":B0_19_0" index="0" speed="9.84" length="13.32" shape="396.44,201.60 399.40,203.00 402.25,206.75 403.20,212.00"/>
    </edge>
    <edge id=":B0A0.100.00_0" function="internal">
        <lane id=":B0A0.100.00_0_0" index="0" speed="20.00" length="8.27" shape="304.00,206.40 296.00,206.40"/>
        <lane id=":B0A0.100.00_0_1" index="1" speed="20.00" length="8.27" shape="304.00,203.20 296.00,203.20"/>
        <lane id=":B0A0.100.00_0_2" index="2" speed="20.00" length="8.27" shape="304.00,203.20 301.54,202.70 300.00,201.60 298.46,200.50 296.00,200.00"/>
    </edge>
    <edge id=":B0B1.100.00_0" function="internal">
        <lane id=":B0B1.100.00_0_0" index="0" speed="20.00" length="8.27" shape="406.40,296.00 406.40,304.00"/>
        <lane id=":B0B1.100.00_0_1" index="1" speed="20.00" length="8.27" shape="403.20,296.00 403.20,304.00"/>
        <lane id=":B0B1.100.00_0_2" index="2" speed="20.00" length="8.27" shape="403.20,296.00 402.70,298.46 401.60,300.00 400.50,301.54 400.00,304.00"/>
    </edge>
    <edge id=":B0C0.100.00_0" function="internal">
        <lane id=":B0C0.100.00_0_0" index="0" speed="20.00" length="8.27" shape="496.00,193.60 504.00,193.60"/>
        <lane id=":B0C0.100.00_0_1" index="1" speed="20.00" length="8.27" shape="496.00,196.80 504.00,196.80"/>
        <lane id=":B0C0.100.00_0_2" index="2" speed="20.00" length="8.27" shape="496.00,196.80 498.46,197.30 500.00,198.40 501.54,199.50 504.00,200.00"/>
    </edge>
    <edge id=":B1_0" function="internal">
        <lane id=":B1_0_0" index="0" speed="6.51" length="9.03" shape="393.60,412.00 393.25,409.55 392.20,407.80 390.45,406.75 388.00,406.40"/>
    </edge>
    <edge id=":B1_1" function="internal">
        <lane id=":B1_1_0" index="0" speed="20.00" length="24.00" shape="393.60,412.00 393.60,388.00"/>
        <lane id=":B1_1_1" index="1" speed="20.00" length="24.00" shape="396.80,412.00 396.80,388.00"/>
    </edge>
    <edge id=":B1_3" function="internal">
        <lane id=":B1_3_0" index="0" speed="9.84" length="8.68" shape="400.00,412.00 400.75,405.35 401.60,403.56"/>
    </edge>
    <edge id=":B1_16" function="internal">
        <lane id=":B1_16_0" index="0" speed="9.84" length="13.32" shape="401.60,403.56 403.00,400.60 406.75,397.75 412.00,396.80"/>
    </edge>
    <edge id=":B1_4" function="internal">
        <lane id=":B1_4_0" index="0" speed="6.51" length="9.03" shape="412.00,406.40 409.55,406.75 407.80,407.80 406.75,409.55 406.40,412.00"/>
    </edge>
    <edge id=":B1_5" function="internal">
        <lane id=":B1_5_0" index="0" speed="20.00" length="24.00" shape="412.00,406.40 388.00,406.40"/>
        <lane id=":B1_5_1" index="1" speed="20.00" length="24.00" shape="412.00,403.20 388.00,403.20"/>
    </edge>
    <edge id=":B1_7" function="internal">
        <lane id=":B1_7_0" index="0" speed="9.84" length="8.68" shape="412.00,400.00 405.35,399.25 403.56,398.40"/>
    </edge>
    <edge id=":B1_17" function="internal">
        <lane id=":B1_17_0" index="0" speed="9.84" length="13.32" shape="403.56,398.40 400.60,397.00 397.75,393.25 396.80,388.00"/>
    </edge>
    <edge id=":B1_8" function="internal">
        <lane id=":B1_8_0" index="0" speed="6.51" length="9.03" shape="406.40,388.00 406.75,390.45 407.80,392.20 409.55,393.25 412.00,393.60"/>
    </edge>
    <edge id=":B1_9" function="internal">
        <lane id=":B1_9_0" index="0" speed="20.00" length="24.00" shape="406.40,388.00 406.40,412.00"/>
        <lane id=":B1_9_1" index="1" speed="20.00" length="24.00" shape="403.20,388.00 403.20,412.00"/>
    </edge>
    <edge id=":B1_11" function="internal">
        <lane id=":B1_11_0" index="0" speed="9.84" length="8.68" shape="400.00,388.00 399.25,394.65 398.40,396.44"/>
    </edge>
    <edge id=":B1_18" function="internal">
        <lane id=":B1_18_0" index="0" speed="9.84" length="13.32" shape="398.40,396.44 397.00,399.40 393.25,402.25 388.00,403.20"/>
    </edge>
    <edge id=":B1_12" function="internal">
        <lane id=":B1_12_0" index="0" speed="6.51" length="9.03" shape="388.00,393.60 390.45,393.25 392.20,392.20 393.25,390.45 393.60,388.00"/>
    </edge>
    <edge id=":B1_13" function="internal">
        <lane id=":B1_13_0" index="0" speed="20.00" length="24.00" shape="388.00,393.60 412.00,393.60"/>
        <lane id=":B1_13_1" index="1" speed="20.00" length="24.00" shape="388.00,396.80 412.00,396.80"/>
    </edge>
    <edge id=":B1_15" function="internal">
        <lane id=":B1_15_0" index="0" speed="9.84" length="8.68" shape="388.00,400.00 394.65,400.75 396.44,401.60"/>
    </edge>
    <edge id=":B1_19" function="internal">
        <lane id=":B1_19_0" index="0" speed="9.84" length="13.32" shape="396.44,401.60 399.40,403.00 402.25,406.75 403.20,412.00"/>
    </edge>
    <edge id=":B1A1.100.00_0" function="internal">
        <lane id=":B1A1.100.00_0_0" index="0" speed="20.00" length="8.27" shape="304.00,406.40 296.00,406.40"/>
        <lane id=":B1A1.100.00_0_1" index="1" speed="20.00" length="8.27" shape="304.00,403.20 296.00,403.20"/>
        <lane id=":B1A1.100.00_0_2" index="2" speed="20.00" length="8.27" shape="304.00,403.20 301.54,402.70 300.00,401.60 298.46,400.50 296.00,400.00"/>
    </edge>
    <edge id=":B1B0.100.00_0" function="internal">
        <lane id=":B1B0.100.00_0_0" index="0" speed="20.00" length="8.27" shape="393.60,304.00 393.60,296.00"/>
        <lane id=":B1B0.100.00_0_1" index="1" speed="20.00" length="8.27" shape="396.80,304.00 396.80,296.00"/>
        <lane id=":B1B0.100.00_0_2" index="2" speed="20.00" length="8.27" shape="396.80,304.00 397.30,301.54 398.40,300.00 399.50,298.46 400.00,296.00"/>
    </edge>
    <edge id=":B1B2.100.00_0" function="internal">
        <lane id=":B1B2.100.00_0_0" index="0" speed="20.00" length="8.27" shape="406.40,496.00 406.40,504.00"/>
        <lane id=":B1B2.100.00_0_1" index="1" speed="20.00" length="8.27" shape="403.20,496.00 403.20,504.00"/>
        <lane id=":B1B2.100.00_0_2" index="2" speed="20.00" length="8.27" shape="403.20,496.00 402.70,498.46 401.60,500.00 400.50,501.54 400.00,504.00"/>
    </edge>
    <edge id=":B1C1.100.00_0" function="internal">
        <lane id=":B1C1.100.00_0_0" index="0" speed="20.00" length="8.27" shape="496.00,393.60 504.00,393.60"/>
        <lane id=":B1C1.100.00_0_1" index="1" speed="20.00" length="8.27" shape="496.00,396.80 504.00,396.80"/>
        <lane id=":B1C1.100.00_0_2" index="2" speed="20.00" length="8.27" shape="496.00,396.80 498.46,397.30 500.00,398.40 501.54,399.50 504.00,400.00"/>
    </edge>
    <edge id=":B2_0" function="internal">
        <lane id=":B2_0_0" index="0" speed="6.51" length="9.03" shape="393.60,612.00 393.25,609.55 392.20,607.80 390.45,606.75 388.00,606.40"/>
    </edge>
    <edge id=":B2_1" function="internal">
        <lane id=":B2_1_0" index="0" speed="20.00" length="24.00" shape="393.60,612.00 393.60,588.00"/>
        <lane id=":B2_1_1" index="1" speed="20.00" length="24.00" shape="396.80,612.00 396.80,588.00"/>
    </edge>
    <edge id=":B2_3" function="internal">
        <lane id=":B2_3_0" index="0" speed="9.84" length="8.68" shape="400.00,612.00 400.75,605.35 401.60,603.56"/>
    </edge>
    <edge id=":B2_16" function="internal">
        <lane id=":B2_16_0" index="0" speed="9.84" length="13.32" shape="401.60,603.56 403.00,600.60 406.75,597.75 412.00,596.80"/>
    </edge>
    <edge id=":B2_4" function="internal">
        <lane id=":B2_4_0" index="0" speed="6.51" length="9.03" shape="412.00,606.40 409.55,606.75 407.80,607.80 406.75,609.55 406.40,612.00"/>
    </edge>
    <edge id=":B2_5" function="internal">
        <lane id=":B2_5_0" index="0" speed="20.00" length="24.00" shape="412.00,606.40 388.00,606.40"/>
        <lane id=":B2_5_1" index="1" speed="20.00" length="24.00" shape="412.00,603.20 388.00,603.20"/>
    </edge>
    <edge id=":B2_7" function="internal">
        <lane id=":B2_7_0" index="0" speed="9.84" length="8.68" shape="412.00,600.00 405.35,599.25 403.56,598.40"/>
    </edge>