<routes>
    <vType id="t0" accel="0.8" decel="4.5" length="100" maxSpeed="30"/>
    <vType id="t1" accel="0.8" decel="4.5" length="5" maxSpeed="50"/>
    <route id="r0" edges="beg middle end"/>

    <vehicle id="v0" type="t0" route="r0" depart="0">
        <stop lane="middle_0" duration="600" endPos="30" parking="false" />
    </vehicle>

    
    <vehicle id="v5" type="t1" route="r0" depart="10"></vehicle>

</routes>
