<?xml version="1.0" encoding="UTF-8"?>

<!-- generated on Mon Oct  5 10:03:01 2020 by Eclipse SUMO duarouter Version 104d8d5c
<configuration xmlns:xsi="http://www.w3.org/2001/XMLSchema-instance" xsi:noNamespaceSchemaLocation="http://sumo.dlr.de/xsd/duarouterConfiguration.xsd">

    <input>
        <net-file value="test.net.xml"/>
        <route-files value="trips.trips.xml"/>
    </input>

    <output>
        <output-file value="test.rou.xml"/>
        <alternatives-output value="test.rou.alt.xml"/>
    </output>

    <time>
        <begin value="0"/>
        <end value="600"/>
    </time>

    <report>
        <no-warnings value="true"/>
        <ignore-errors value="true"/>
        <no-step-log value="true"/>
    </report>

</configuration>
-->

<routes xmlns:xsi="http://www.w3.org/2001/XMLSchema-instance" xsi:noNamespaceSchemaLocation="http://sumo.dlr.de/xsd/routes_file.xsd">
    <vehicle id="6" depart="6.00">
        <route edges="134160488#0 -15438029#0"/>
    </vehicle>
    <vehicle id="10" depart="10.00">
        <route edges="15438029#0 134160488#1"/>
    </vehicle>
    <vehicle id="13" depart="13.00">
        <route edges="134160488#0 -15438029#0"/>
    </vehicle>
    <vehicle id="15" depart="15.00">
        <route edges="15438029#0 134160488#1"/>
    </vehicle>
    <vehicle id="16" depart="16.00">
        <route edges="15438029#0 134160488#1"/>
    </vehicle>
    <vehicle id="22" depart="22.00">
        <route edges="134160488#0 -15438029#0"/>
    </vehicle>
    <vehicle id="23" depart="23.00">
        <route edges="134160488#0 -15438029#0"/>
    </vehicle>
    <vehicle id="26" depart="26.00">
        <route edges="15438029#0 134160488#1"/>
    </vehicle>
    <vehicle id="28" depart="28.00">
        <route edges="15438029#0 134160488#1"/>
    </vehicle>
    <vehicle id="32" depart="32.00">
        <route edges="15438029#0 134160488#1"/>
    </vehicle>
    <vehicle id="35" depart="35.00">
        <route edges="15438029#0 134160488#1"/>
    </vehicle>
    <vehicle id="41" depart="41.00">
        <route edges="15438029#0 134160488#1"/>
    </vehicle>
    <vehicle id="44" depart="44.00">
        <route edges="134160488#0 -15438029#0"/>
    </vehicle>
    <vehicle id="45" depart="45.00">
        <route edges="134160488#0 -15438029#0"/>
    </vehicle>
    <vehicle id="47" depart="47.00">
        <route edges="134160488#0 -15438029#0"/>
    </vehicle>
    <vehicle id="49" depart="49.00">
        <route edges="15438029#0 134160488#1"/>
    </vehicle>
    <vehicle id="50" depart="50.00">
        <route edges="-15438029#1 134160488#1"/>
    </vehicle>
    <vehicle id="53" depart="53.00">
        <route edges="134160488#0 -15438029#0"/>
    </vehicle>
    <vehicle id="54" depart="54.00">
        <route edges="15438029#0 134160488#1"/>
    </vehicle>
    <vehicle id="57" depart="57.00">
        <route edges="15438029#0 134160488#1"/>
    </vehicle>
    <vehicle id="62" depart="62.00">
        <route edges="-15438029#1 -15438029#0"/>
    </vehicle>
    <vehicle id="63" depart="63.00">
        <route edges="134160488#0 134160488#1"/>
    </vehicle>
    <vehicle id="64" depart="64.00">
        <route edges="15438029#0 134160488#1"/>
    </vehicle>
    <vehicle id="66" depart="66.00">
        <route edges="15438029#0 134160488#1"/>
    </vehicle>
    <vehicle id="67" depart="67.00">
        <route edges="134160488#0 -15438029#0"/>
    </vehicle>
    <vehicle id="68" depart="68.00">
        <route edges="134160488#0 134160488#1"/>
    </vehicle>
    <vehicle id="71" depart="71.00">
        <route edges="15438029#0 134160488#1"/>
    </vehicle>
    <vehicle id="73" depart="73.00">
        <route edges="15438029#0 134160488#1"/>
    </vehicle>
    <vehicle id="77" depart="77.00">
        <route edges="134160488#0 -15438029#0"/>
    </vehicle>
    <vehicle id="80" depart="80.00">
        <route edges="134160488#0 -15438029#0"/>
    </vehicle>
    <vehicle id="81" depart="81.00">
        <route edges="15438029#0 134160488#1"/>
    </vehicle>
    <vehicle id="86" depart="86.00">
        <route edges="15438029#0 134160488#1"/>
    </vehicle>
    <vehicle id="88" depart="88.00">
        <route edges="134160488#0 -15438029#0"/>
    </vehicle>
    <vehicle id="96" depart="96.00">
        <route edges="15438029#0 134160488#1"/>
    </vehicle>
    <vehicle id="97" depart="97.00">
        <route edges="15438029#0 134160488#1"/>
    </vehicle>
    <vehicle id="99" depart="99.00">
        <route edges="15438029#0 134160488#1"/>
    </vehicle>
    <vehicle id="100" depart="100.00">
        <route edges="15438029#0 134160488#1"/>
    </vehicle>
    <vehicle id="104" depart="104.00">
        <route edges="15438029#0 134160488#1"/>
    </vehicle>
    <vehicle id="105" depart="105.00">
        <route edges="15438029#0 134160488#1"/>
    </vehicle>
    <vehicle id="107" depart="107.00">
        <route edges="15438029#0 15438029#1"/>
    </vehicle>
    <vehicle id="108" depart="108.00">
        <route edges="15438029#0 134160488#1"/>
    </vehicle>
    <vehicle id="111" depart="111.00">
        <route edges="15438029#0 134160488#1"/>
    </vehicle>
    <vehicle id="112" depart="112.00">
        <route edges="134160488#0 -15438029#0"/>
    </vehicle>
    <vehicle id="113" depart="113.00">
        <route edges="15438029#0 134160488#1"/>
    </vehicle>
    <vehicle id="114" depart="114.00">
        <route edges="15438029#0 134160488#1"/>
    </vehicle>
    <vehicle id="115" depart="115.00">
        <route edges="134160488#0 -15438029#0"/>
    </vehicle>
    <vehicle id="121" depart="121.00">
        <route edges="15438029#0 134160488#1"/>
    </vehicle>
    <vehicle id="122" depart="122.00">
        <route edges="15438029#0 134160488#1"/>
    </vehicle>
    <vehicle id="125" depart="125.00">
        <route edges="15438029#0 134160488#1"/>
    </vehicle>
    <vehicle id="126" depart="126.00">
        <route edges="134160488#0 -15438029#0"/>
    </vehicle>
    <vehicle id="127" depart="127.00">
        <route edges="15438029#0 15438029#1"/>
    </vehicle>
    <vehicle id="128" depart="128.00">
        <route edges="134160488#0 -15438029#0"/>
    </vehicle>
    <vehicle id="129" depart="129.00">
        <route edges="15438029#0 134160488#1"/>
    </vehicle>
    <vehicle id="130" depart="130.00">
        <route edges="15438029#0 134160488#1"/>
    </vehicle>
    <vehicle id="132" depart="132.00">
        <route edges="15438029#0 134160488#1"/>
    </vehicle>
    <vehicle id="133" depart="133.00">
        <route edges="15438029#0 134160488#1"/>
    </vehicle>
    <vehicle id="136" depart="136.00">
        <route edges="15438029#0 134160488#1"/>
    </vehicle>
    <vehicle id="137" depart="137.00">
        <route edges="134160488#0 -15438029#0"/>
    </vehicle>
    <vehicle id="138" depart="138.00">
        <route edges="134160488#0 -15438029#0"/>
    </vehicle>
    <vehicle id="142" depart="142.00">
        <route edges="15438029#0 134160488#1"/>
    </vehicle>
    <vehicle id="145" depart="145.00">
        <route edges="-15438029#1 134160488#1"/>
    </vehicle>
    <vehicle id="149" depart="149.00">
        <route edges="134160488#0 134160488#1"/>
    </vehicle>
    <vehicle id="153" depart="153.00">
        <route edges="15438029#0 134160488#1"/>
    </vehicle>
    <vehicle id="154" depart="154.00">
        <route edges="15438029#0 134160488#1"/>
    </vehicle>
    <vehicle id="157" depart="157.00">
        <route edges="15438029#0 134160488#1"/>
    </vehicle>
    <vehicle id="159" depart="159.00">
        <route edges="15438029#0 134160488#1"/>
    </vehicle>
    <vehicle id="160" depart="160.00">
        <route edges="15438029#0 134160488#1"/>
    </vehicle>
    <vehicle id="161" depart="161.00">
        <route edges="15438029#0 134160488#1"/>
    </vehicle>
    <vehicle id="162" depart="162.00">
        <route edges="134160488#0 134160488#1"/>
    </vehicle>
    <vehicle id="163" depart="163.00">
        <route edges="15438029#0 134160488#1"/>
    </vehicle>
    <vehicle id="164" depart="164.00">
        <route edges="15438029#0 134160488#1"/>
    </vehicle>
    <vehicle id="167" depart="167.00">
        <route edges="15438029#0 134160488#1"/>
    </vehicle>
    <vehicle id="168" depart="168.00">
        <route edges="15438029#0 134160488#1"/>
    </vehicle>
    <vehicle id="171" depart="171.00">
        <route edges="134160488#0 -15438029#0"/>
    </vehicle>
    <vehicle id="172" depart="172.00">
        <route edges="15438029#0 134160488#1"/>
    </vehicle>
    <vehicle id="179" depart="179.00">
        <route edges="134160488#0 -15438029#0"/>
    </vehicle>
    <vehicle id="183" depart="183.00">
        <route edges="15438029#0 134160488#1"/>
    </vehicle>
    <vehicle id="184" depart="184.00">
        <route edges="-15438029#1 134160488#1"/>
    </vehicle>
    <vehicle id="185" depart="185.00">
        <route edges="15438029#0 134160488#1"/>
    </vehicle>
    <vehicle id="189" depart="189.00">
        <route edges="15438029#0 134160488#1"/>
    </vehicle>
    <vehicle id="193" depart="193.00">
        <route edges="134160488#0 -15438029#0"/>
    </vehicle>
    <vehicle id="197" depart="197.00">
        <route edges="-15438029#1 -15438029#0"/>
    </vehicle>
    <vehicle id="201" depart="201.00">
        <route edges="15438029#0 134160488#1"/>
    </vehicle>
    <vehicle id="203" depart="203.00">
        <route edges="134160488#0 -15438029#0"/>
    </vehicle>
    <vehicle id="205" depart="205.00">
        <route edges="15438029#0 134160488#1"/>
    </vehicle>
    <vehicle id="211" depart="211.00">
        <route edges="15438029#0 134160488#1"/>
    </vehicle>
    <vehicle id="214" depart="214.00">
        <route edges="15438029#0 134160488#1"/>
    </vehicle>
    <vehicle id="215" depart="215.00">
        <route edges="134160488#0 -15438029#0"/>
    </vehicle>
    <vehicle id="216" depart="216.00">
        <route edges="15438029#0 134160488#1"/>
    </vehicle>
    <vehicle id="218" depart="218.00">
        <route edges="15438029#0 134160488#1"/>
    </vehicle>
    <vehicle id="219" depart="219.00">
        <route edges="15438029#0 134160488#1"/>
    </vehicle>
    <vehicle id="220" depart="220.00">
        <route edges="15438029#0 134160488#1"/>
    </vehicle>
    <vehicle id="221" depart="221.00">
        <route edges="15438029#0 134160488#1"/>
    </vehicle>
    <vehicle id="225" depart="225.00">
        <route edges="15438029#0 134160488#1"/>
    </vehicle>
    <vehicle id="230" depart="230.00">
        <route edges="134160488#0 -15438029#0"/>
    </vehicle>
    <vehicle id="237" depart="237.00">
        <route edges="15438029#0 134160488#1"/>
    </vehicle>
    <vehicle id="239" depart="239.00">
        <route edges="15438029#0 134160488#1"/>
    </vehicle>
    <vehicle id="241" depart="241.00">
        <route edges="15438029#0 134160488#1"/>
    </vehicle>
    <vehicle id="242" depart="242.00">
        <route edges="15438029#0 134160488#1"/>
    </vehicle>
    <vehicle id="243" depart="243.00">
        <route edges="15438029#0 134160488#1"/>
    </vehicle>
    <vehicle id="252" depart="252.00">
        <route edges="134160488#0 -15438029#0"/>
    </vehicle>
    <vehicle id="253" depart="253.00">
        <route edges="134160488#0 -15438029#0"/>
    </vehicle>
    <vehicle id="254" depart="254.00">
        <route edges="134160488#0 -15438029#0"/>
    </vehicle>
    <vehicle id="257" depart="257.00">
        <route edges="15438029#0 134160488#1"/>
    </vehicle>
    <vehicle id="259" depart="259.00">
        <route edges="134160488#0 -15438029#0"/>
    </vehicle>
    <vehicle id="261" depart="261.00">
        <route edges="15438029#0 134160488#1"/>
    </vehicle>
    <vehicle id="262" depart="262.00">
        <route edges="15438029#0 134160488#1"/>
    </vehicle>
    <vehicle id="264" depart="264.00">
        <route edges="134160488#0 -15438029#0"/>
    </vehicle>
    <vehicle id="265" depart="265.00">
        <route edges="134160488#0 -15438029#0"/>
    </vehicle>
    <vehicle id="267" depart="267.00">
        <route edges="15438029#0 134160488#1"/>
    </vehicle>
    <vehicle id="270" depart="270.00">
        <route edges="15438029#0 134160488#1"/>
    </vehicle>
    <vehicle id="271" depart="271.00">
        <route edges="134160488#0 -15438029#0"/>
    </vehicle>
    <vehicle id="276" depart="276.00">
        <route edges="134160488#0 134160488#1"/>
    </vehicle>
    <vehicle id="278" depart="278.00">
        <route edges="134160488#0 134160488#1"/>
    </vehicle>
    <vehicle id="282" depart="282.00">
        <route edges="15438029#0 134160488#1"/>
    </vehicle>
    <vehicle id="283" depart="283.00">
        <route edges="134160488#0 134160488#1"/>
    </vehicle>
    <vehicle id="284" depart="284.00">
        <route edges="15438029#0 134160488#1"/>
    </vehicle>
    <vehicle id="286" depart="286.00">
        <route edges="15438029#0 134160488#1"/>
    </vehicle>
    <vehicle id="287" depart="287.00">
        <route edges="15438029#0 134160488#1"/>
    </vehicle>
    <vehicle id="289" depart="289.00">
        <route edges="15438029#0 134160488#1"/>
    </vehicle>
    <vehicle id="290" depart="290.00">
        <route edges="15438029#0 134160488#1"/>
    </vehicle>
    <vehicle id="296" depart="296.00">
        <route edges="15438029#0 134160488#1"/>
    </vehicle>
    <vehicle id="297" depart="297.00">
        <route edges="15438029#0 134160488#1"/>
    </vehicle>
    <vehicle id="299" depart="299.00">
        <route edges="-15438029#1 134160488#1"/>
    </vehicle>
    <vehicle id="300" depart="300.00">
        <route edges="134160488#0 134160488#1"/>
    </vehicle>
    <vehicle id="301" depart="301.00">
        <route edges="15438029#0 134160488#1"/>
    </vehicle>
    <vehicle id="303" depart="303.00">
        <route edges="15438029#0 134160488#1"/>
    </vehicle>
    <vehicle id="304" depart="304.00">
        <route edges="134160488#0 -15438029#0"/>
    </vehicle>
    <vehicle id="312" depart="312.00">
        <route edges="15438029#0 134160488#1"/>
    </vehicle>
    <vehicle id="314" depart="314.00">
        <route edges="15438029#0 134160488#1"/>
    </vehicle>
    <vehicle id="328" depart="328.00">
        <route edges="134160488#0 -15438029#0"/>
    </vehicle>
    <vehicle id="329" depart="329.00">
        <route edges="134160488#0 -15438029#0"/>
    </vehicle>
    <vehicle id="335" depart="335.00">
        <route edges="15438029#0 134160488#1"/>
    </vehicle>
    <vehicle id="338" depart="338.00">
        <route edges="15438029#0 134160488#1"/>
    </vehicle>
    <vehicle id="342" depart="342.00">
        <route edges="-15438029#1 -15438029#0"/>
    </vehicle>
    <vehicle id="344" depart="344.00">
        <route edges="15438029#0 134160488#1"/>
    </vehicle>
    <vehicle id="346" depart="346.00">
        <route edges="15438029#0 134160488#1"/>
    </vehicle>
    <vehicle id="348" depart="348.00">
        <route edges="15438029#0 134160488#1"/>
    </vehicle>
    <vehicle id="350" depart="350.00">
        <route edges="15438029#0 134160488#1"/>
    </vehicle>
    <vehicle id="355" depart="355.00">
        <route edges="15438029#0 134160488#1"/>
    </vehicle>
    <vehicle id="358" depart="358.00">
        <route edges="134160488#0 -15438029#0"/>
    </vehicle>
    <vehicle id="360" depart="360.00">
        <route edges="134160488#0 134160488#1"/>
    </vehicle>
    <vehicle id="362" depart="362.00">
        <route edges="15438029#0 15438029#1"/>
    </vehicle>
    <vehicle id="364" depart="364.00">
        <route edges="134160488#0 134160488#1"/>
    </vehicle>
    <vehicle id="370" depart="370.00">
        <route edges="15438029#0 134160488#1"/>
    </vehicle>
    <vehicle id="372" depart="372.00">
        <route edges="15438029#0 134160488#1"/>
    </vehicle>
    <vehicle id="375" depart="375.00">
        <route edges="15438029#0 134160488#1"/>
    </vehicle>
    <vehicle id="382" depart="382.00">
        <route edges="15438029#0 134160488#1"/>
    </vehicle>
    <vehicle id="383" depart="383.00">
        <route edges="15438029#0 134160488#1"/>
    </vehicle>
    <vehicle id="384" depart="384.00">
        <route edges="134160488#0 134160488#1"/>
    </vehicle>
    <vehicle id="388" depart="388.00">
        <route edges="15438029#0 134160488#1"/>
    </vehicle>
    <vehicle id="392" depart="392.00">
        <route edges="15438029#0 134160488#1"/>
    </vehicle>
    <vehicle id="396" depart="396.00">
        <route edges="15438029#0 134160488#1"/>
    </vehicle>
    <vehicle id="397" depart="397.00">
        <route edges="15438029#0 134160488#1"/>
    </vehicle>
    <vehicle id="398" depart="398.00">
        <route edges="15438029#0 134160488#1"/>
    </vehicle>
    <vehicle id="399" depart="399.00">
        <route edges="15438029#0 134160488#1"/>
    </vehicle>
    <vehicle id="401" depart="401.00">
        <route edges="15438029#0 15438029#1"/>
    </vehicle>
    <vehicle id="406" depart="406.00">
        <route edges="15438029#0 134160488#1"/>
    </vehicle>
    <vehicle id="409" depart="409.00">
        <route edges="15438029#0 134160488#1"/>
    </vehicle>
    <vehicle id="411" depart="411.00">
        <route edges="15438029#0 134160488#1"/>
    </vehicle>
    <vehicle id="413" depart="413.00">
        <route edges="134160488#0 -15438029#0"/>
    </vehicle>
    <vehicle id="414" depart="414.00">
        <route edges="15438029#0 134160488#1"/>
    </vehicle>
    <vehicle id="419" depart="419.00">
        <route edges="15438029#0 134160488#1"/>
    </vehicle>
    <vehicle id="421" depart="421.00">
        <route edges="15438029#0 134160488#1"/>
    </vehicle>
    <vehicle id="422" depart="422.00">
        <route edges="15438029#0 134160488#1"/>
    </vehicle>
    <vehicle id="424" depart="424.00">
        <route edges="15438029#0 134160488#1"/>
    </vehicle>
    <vehicle id="426" depart="426.00">
        <route edges="134160488#0 -15438029#0"/>
    </vehicle>
    <vehicle id="427" depart="427.00">
        <route edges="15438029#0 15438029#1"/>
    </vehicle>
    <vehicle id="429" depart="429.00">
        <route edges="134160488#0 -15438029#0"/>
    </vehicle>
    <vehicle id="431" depart="431.00">
        <route edges="15438029#0 134160488#1"/>
    </vehicle>
    <vehicle id="432" depart="432.00">
        <route edges="134160488#0 134160488#1"/>
    </vehicle>
    <vehicle id="435" depart="435.00">
        <route edges="15438029#0 134160488#1"/>
    </vehicle>
    <vehicle id="438" depart="438.00">
        <route edges="15438029#0 134160488#1"/>
    </vehicle>
    <vehicle id="441" depart="441.00">
        <route edges="-15438029#1 134160488#1"/>
    </vehicle>
    <vehicle id="446" depart="446.00">
        <route edges="15438029#0 134160488#1"/>
    </vehicle>
    <vehicle id="453" depart="453.00">
        <route edges="15438029#0 134160488#1"/>
    </vehicle>
    <vehicle id="454" depart="454.00">
        <route edges="134160488#0 -15438029#0"/>
    </vehicle>
    <vehicle id="455" depart="455.00">
        <route edges="15438029#0 134160488#1"/>
    </vehicle>
    <vehicle id="456" depart="456.00">
        <route edges="15438029#0 134160488#1"/>
    </vehicle>
    <vehicle id="459" depart="459.00">
        <route edges="15438029#0 134160488#1"/>
    </vehicle>
    <vehicle id="460" depart="460.00">
        <route edges="15438029#0 134160488#1"/>
    </vehicle>
    <vehicle id="461" depart="461.00">
        <route edges="15438029#0 134160488#1"/>
    </vehicle>
    <vehicle id="465" depart="465.00">
        <route edges="15438029#0 134160488#1"/>
    </vehicle>
    <vehicle id="467" depart="467.00">
        <route edges="15438029#0 134160488#1"/>
    </vehicle>
    <vehicle id="468" depart="468.00">
        <route edges="15438029#0 134160488#1"/>
    </vehicle>
    <vehicle id="471" depart="471.00">
        <route edges="15438029#0 134160488#1"/>
    </vehicle>
    <vehicle id="474" depart="474.00">
        <route edges="15438029#0 134160488#1"/>
    </vehicle>
    <vehicle id="475" depart="475.00">
        <route edges="15438029#0 134160488#1"/>
    </vehicle>
    <vehicle id="476" depart="476.00">
        <route edges="15438029#0 134160488#1"/>
    </vehicle>
    <vehicle id="477" depart="477.00">
        <route edges="15438029#0 134160488#1"/>
    </vehicle>
    <vehicle id="478" depart="478.00">
        <route edges="134160488#0 -15438029#0"/>
    </vehicle>
    <vehicle id="481" depart="481.00">
        <route edges="15438029#0 134160488#1"/>
    </vehicle>
    <vehicle id="482" depart="482.00">
        <route edges="134160488#0 -15438029#0"/>
    </vehicle>
    <vehicle id="483" depart="483.00">
        <route edges="134160488#0 134160488#1"/>
    </vehicle>
    <vehicle id="484" depart="484.00">
        <route edges="15438029#0 134160488#1"/>
    </vehicle>
    <vehicle id="486" depart="486.00">
        <route edges="15438029#0 134160488#1"/>
    </vehicle>
    <vehicle id="488" depart="488.00">
        <route edges="15438029#0 134160488#1"/>
    </vehicle>
    <vehicle id="490" depart="490.00">
        <route edges="134160488#0 134160488#1"/>
    </vehicle>
    <vehicle id="491" depart="491.00">
        <route edges="134160488#0 -15438029#0"/>
    </vehicle>
    <vehicle id="492" depart="492.00">
        <route edges="15438029#0 134160488#1"/>
    </vehicle>
    <vehicle id="499" depart="499.00">
        <route edges="15438029#0 134160488#1"/>
    </vehicle>
    <vehicle id="500" depart="500.00">
        <route edges="134160488#0 -15438029#0"/>
    </vehicle>
    <vehicle id="501" depart="501.00">
        <route edges="15438029#0 134160488#1"/>
    </vehicle>
    <vehicle id="508" depart="508.00">
        <route edges="134160488#0 -15438029#0"/>
    </vehicle>
    <vehicle id="509" depart="509.00">
        <route edges="134160488#0 134160488#1"/>
    </vehicle>
    <vehicle id="512" depart="512.00">
        <route edges="15438029#0 134160488#1"/>
    </vehicle>
    <vehicle id="513" depart="513.00">
        <route edges="-15438029#1 134160488#1"/>
    </vehicle>
    <vehicle id="517" depart="517.00">
        <route edges="134160488#0 134160488#1"/>
    </vehicle>
    <vehicle id="523" depart="523.00">
        <route edges="134160488#0 -15438029#0"/>
    </vehicle>
    <vehicle id="525" depart="525.00">
        <route edges="15438029#0 134160488#1"/>
    </vehicle>
    <vehicle id="531" depart="531.00">
        <route edges="134160488#0 -15438029#0"/>
    </vehicle>
    <vehicle id="532" depart="532.00">
        <route edges="134160488#0 -15438029#0"/>
    </vehicle>
    <vehicle id="534" depart="534.00">
        <route edges="15438029#0 15438029#1"/>
    </vehicle>
    <vehicle id="537" depart="537.00">
        <route edges="15438029#0 134160488#1"/>
    </vehicle>
    <vehicle id="538" depart="538.00">
        <route edges="15438029#0 134160488#1"/>
    </vehicle>
    <vehicle id="547" depart="547.00">
        <route edges="134160488#0 134160488#1"/>
    </vehicle>
    <vehicle id="552" depart="552.00">
        <route edges="15438029#0 134160488#1"/>
    </vehicle>
    <vehicle id="553" depart="553.00">
        <route edges="15438029#0 134160488#1"/>
    </vehicle>
    <vehicle id="557" depart="557.00">
        <route edges="134160488#0 134160488#1"/>
    </vehicle>
    <vehicle id="558" depart="558.00">
        <route edges="15438029#0 134160488#1"/>
    </vehicle>
    <vehicle id="559" depart="559.00">
        <route edges="15438029#0 134160488#1"/>
    </vehicle>
    <vehicle id="560" depart="560.00">
        <route edges="15438029#0 134160488#1"/>
    </vehicle>
    <vehicle id="563" depart="563.00">
        <route edges="15438029#0 134160488#1"/>
    </vehicle>
    <vehicle id="572" depart="572.00">
        <route edges="15438029#0 134160488#1"/>
    </vehicle>
    <vehicle id="574" depart="574.00">
        <route edges="134160488#0 -15438029#0"/>
    </vehicle>
    <vehicle id="584" depart="584.00">
        <route edges="-15438029#1 -15438029#0"/>
    </vehicle>
    <vehicle id="587" depart="587.00">
        <route edges="-15438029#1 134160488#1"/>
    </vehicle>
    <vehicle id="590" depart="590.00">
        <route edges="15438029#0 134160488#1"/>
    </vehicle>
    <vehicle id="591" depart="591.00">
        <route edges="134160488#0 134160488#1"/>
    </vehicle>
    <vehicle id="592" depart="592.00">
        <route edges="134160488#0 -15438029#0"/>
    </vehicle>
    <vehicle id="593" depart="593.00">
        <route edges="15438029#0 134160488#1"/>
    </vehicle>
    <vehicle id="596" depart="596.00">
        <route edges="134160488#0 -15438029#0"/>
    </vehicle>
    <vehicle id="597" depart="597.00">
        <route edges="15438029#0 134160488#1"/>
    </vehicle>
    <vehicle id="598" depart="598.00">
        <route edges="15438029#0 134160488#1"/>
    </vehicle>
</routes>
