<?xml version="1.0" encoding="UTF-8"?>

<!-- generated on Tue Nov 12 14:18:11 2019 by Eclipse SUMO duarouter Version v1_3_1+0801-fdab291c73
<configuration xmlns:xsi="http://www.w3.org/2001/XMLSchema-instance" xsi:noNamespaceSchemaLocation="http://sumo.dlr.de/xsd/duarouterConfiguration.xsd">

    <input>
        <net-file value="dualring2.net.xml"/>
        <route-files value="random.rou.xml"/>
    </input>

    <output>
        <output-file value="random.rou.xml.tmp"/>
        <write-trips value="true"/>
    </output>

    <time>
        <begin value="0"/>
        <end value="3600"/>
    </time>

    <report>
        <no-warnings value="true"/>
        <ignore-errors value="true"/>
        <no-step-log value="true"/>
    </report>

</configuration>
-->

<routes xmlns:xsi="http://www.w3.org/2001/XMLSchema-instance" xsi:noNamespaceSchemaLocation="http://sumo.dlr.de/xsd/routes_file.xsd">
    <flow id="0"  begin="0"         end="300"  period="5" departSpeed="random" departLane="random" from="WC" to="CE"/>
    <flow id="1"  begin="0"         end="300"  period="8" departSpeed="random" departLane="random" from="EC" to="CW"/>
    <flow id="2"  begin="0"         end="300"  period="6" departSpeed="random" departLane="random" from="NC" to="CS"/>
    <flow id="3"  begin="0"         end="300"  period="9" departSpeed="random" departLane="random" from="SC" to="CN"/>

</routes>
