<configuration>
    <input>
        <net-file value="simple.net.xml"/>
        <route-files value="input_routes.rou.xml"/>
        <additional-files value="traciDemo.add.xml"/>
        <!-- <additional-files value="NEMA1.add.xml"/>
        <tls.actuated.show-detectors value="true"/> -->
    </input>
</configuration>
