<additional>
    <edgeData id="N2TL" file="test.xml"/>

</additional>